<routes xmlns:xsi="http://www.w3.org/2001/XMLSchema-instance" xsi:noNamespaceSchemaLocation="http://sumo.dlr.de/xsd/routes_file.xsd">
  <vType id="follower0" carFollowModel="EIDM" minGap="3.5766195888282" accel="4.126568711877926" decel="3.8715819954152093" emergencyDecel="15" startupDelay="1.5810753924616439" tau="2.023420977518966" delta="2.1971777805829102" stepping="0.25" tpreview="9.549995311369381" tPersDrive="5.709912823547231" tPersEstimate="7.580803101553406" treaction="0.54525202813182" ccoolness="0.5698901724311878" sigmaleader="0.0001" sigmagap="0.0001" sigmaerror="0.0001" jerkmax="2.9304053762624385" epsilonacc="2.183435440795098" actionStepLength="0.0001" taccmax="1.7592781936168547" Mflatness="1.6083595972627904" Mbegin="0.7554736209888591" />
  <vType id="follower1" carFollowModel="EIDM" minGap="4.805251340313538" accel="4.156005055143948" decel="2.1389708680960924" emergencyDecel="15" startupDelay="0.6064036785311655" tau="1.2236391403065774" delta="2.3091794241080317" stepping="0.25" tpreview="1.774032538678416" tPersDrive="3.2350182060411337" tPersEstimate="6.045366405757589" treaction="0.750460455563907" ccoolness="0.7086332905828665" sigmaleader="0.0001" sigmagap="0.0001" sigmaerror="0.0001" jerkmax="4.999994434424031" epsilonacc="0.8939007832559106" actionStepLength="0.0001" taccmax="0.9578101605953762" Mflatness="1.4678909713642077" Mbegin="1.2271944650522641" />
  <vType id="follower2" carFollowModel="EIDM" minGap="1.1429630637569577" accel="3.512971280728705" decel="1.5075708112050596" emergencyDecel="15" startupDelay="1.6563965712001965" tau="2.128148285683177" delta="4.855460623803946" stepping="0.25" tpreview="7.792431208419477" tPersDrive="4.608476301711028" tPersEstimate="18.524199740833495" treaction="0.8842451543909722" ccoolness="0.3472511445093345" sigmaleader="0.0001" sigmagap="0.0001" sigmaerror="0.0001" jerkmax="1.8462387155625923" epsilonacc="1.691488026857364" actionStepLength="0.0001" taccmax="1.1609659724257688" Mflatness="3.407901818414853" Mbegin="0.8719281430727673" />
  <vType id="follower3" carFollowModel="EIDM" minGap="3.397312528012761" accel="4.776925222587507" decel="0.7984700334804227" emergencyDecel="15" startupDelay="0.16802183418111524" tau="1.1177549514262526" delta="3.7418661345953415" stepping="0.25" tpreview="3.8847113363626096" tPersDrive="5.606121026733293" tPersEstimate="9.542903624657653" treaction="1.0325944845776787" ccoolness="0.46179997792985966" sigmaleader="0.0001" sigmagap="0.0001" sigmaerror="0.0001" jerkmax="4.380893491936293" epsilonacc="2.6628817772115774" actionStepLength="0.0001" taccmax="1.72780395244409" Mflatness="2.4868949259190827" Mbegin="1.3515266649128448" />
  <vType id="follower4" carFollowModel="EIDM" minGap="3.6882344127167044" accel="3.2840986380604997" decel="0.9235866146810878" emergencyDecel="15" startupDelay="1.4769928677827802" tau="1.7391314407045315" delta="4.00381177630652" stepping="0.25" tpreview="4.14079810510575" tPersDrive="5.001510595690803" tPersEstimate="8.862792353475399" treaction="0.5094465493930334" ccoolness="0.4671212722232551" sigmaleader="0.0001" sigmagap="0.0001" sigmaerror="0.0001" jerkmax="4.661404305381714" epsilonacc="1.8013521031837665" actionStepLength="0.0001" taccmax="2.092569768873462" Mflatness="3.044670019437283" Mbegin="0.10202597525241884" />
  <vType id="follower5" carFollowModel="EIDM" minGap="2.906110276989726" accel="2.9994683178112935" decel="3.6195935282133815" emergencyDecel="15" startupDelay="1.2478040685373775" tau="1.954250727232553" delta="5.713499132207813" stepping="0.25" tpreview="4.942561977489951" tPersDrive="1.4090315806845632" tPersEstimate="4.0744216107568" treaction="1.080929486104134" ccoolness="0.8540699563379364" sigmaleader="0.0001" sigmagap="0.0001" sigmaerror="0.0001" jerkmax="4.204639760954295" epsilonacc="1.9228023713674511" actionStepLength="0.0001" taccmax="1.3981920769526777" Mflatness="4.799062408655451" Mbegin="1.088226088789831" />
  <vType id="follower6" carFollowModel="EIDM" minGap="2.2846218726458165" accel="0.8086732174653017" decel="1.6989104498559446" emergencyDecel="15" startupDelay="1.2281003837774154" tau="2.0443173072458443" delta="2.270057668217505" stepping="0.25" tpreview="7.059951195884776" tPersDrive="2.79300225400491" tPersEstimate="7.500965147714968" treaction="0.9102124599944821" ccoolness="0.1733248166039915" sigmaleader="0.0001" sigmagap="0.0001" sigmaerror="0.0001" jerkmax="1.1790740530312285" epsilonacc="1.714422224975592" actionStepLength="0.0001" taccmax="2.986815243836205" Mflatness="3.491381432649538" Mbegin="0.5606846757185596" />
  <vType id="follower7" carFollowModel="EIDM" minGap="1.792312355492343" accel="2.9004789221280634" decel="2.720647509248527" emergencyDecel="15" startupDelay="0.8451101878680221" tau="2.152323672993184" delta="1.4070620680479358" stepping="0.25" tpreview="9.47371697246907" tPersDrive="4.177061189861863" tPersEstimate="10.084337643221758" treaction="0.6996429173934673" ccoolness="0.6499379405797093" sigmaleader="0.0001" sigmagap="0.0001" sigmaerror="0.0001" jerkmax="4.553952368787941" epsilonacc="1.3996706642565975" actionStepLength="0.0001" taccmax="0.748535628270235" Mflatness="1.8858144035908984" Mbegin="0.39949950846181725" />
  <vType id="follower8" carFollowModel="EIDM" minGap="0.9414816947949547" accel="3.3906172629596876" decel="1.0611163948005478" emergencyDecel="15" startupDelay="1.9030354626834285" tau="2.260630378833435" delta="1.8900359000045555" stepping="0.25" tpreview="8.823074941021355" tPersDrive="5.828184411623545" tPersEstimate="12.778610280089989" treaction="0.6341712627162791" ccoolness="0.48816689262899404" sigmaleader="0.0001" sigmagap="0.0001" sigmaerror="0.0001" jerkmax="3.015114157250137" epsilonacc="0.5043122683201607" actionStepLength="0.0001" taccmax="2.3590974549023214" Mflatness="3.3008775689649807" Mbegin="0.24765801025646172" />
  <vType id="follower9" carFollowModel="EIDM" minGap="1.9008449381086145" accel="2.7138056886412847" decel="2.9027821968748513" emergencyDecel="15" startupDelay="1.3572154331471142" tau="2.0755345669855014" delta="3.3506460044414763" stepping="0.25" tpreview="4.882010583048125" tPersDrive="1.6154806938542259" tPersEstimate="19.286980301815145" treaction="1.17478981212189" ccoolness="0.12519006420095288" sigmaleader="0.0001" sigmagap="0.0001" sigmaerror="0.0001" jerkmax="1.367810911273163" epsilonacc="1.5209300826783285" actionStepLength="0.0001" taccmax="2.304226150859228" Mflatness="4.34165512955272" Mbegin="1.3869246652797678" />
  <vType id="follower10" carFollowModel="EIDM" minGap="2.480857758251238" accel="4.285229771901754" decel="3.5825869793922442" emergencyDecel="15" startupDelay="0.9703269550750037" tau="1.265948586034106" delta="4.053290708917051" stepping="0.25" tpreview="2.182385562747953" tPersDrive="4.429232639698712" tPersEstimate="16.71199446096825" treaction="0.22278310826635656" ccoolness="0.1590957789676871" sigmaleader="0.0001" sigmagap="0.0001" sigmaerror="0.0001" jerkmax="3.810884863472225" epsilonacc="0.3302999666409917" actionStepLength="0.0001" taccmax="0.801992032729673" Mflatness="2.54520805900111" Mbegin="1.4208802042852597" />
  <vType id="follower11" carFollowModel="EIDM" minGap="2.1052660816492517" accel="4.447943637733724" decel="3.3776671641720526" emergencyDecel="15" startupDelay="1.4185864424164214" tau="1.3091597118990808" delta="4.552356208221475" stepping="0.25" tpreview="6.457063437822263" tPersDrive="4.777062672667231" tPersEstimate="9.000952369225823" treaction="1.0065489909994556" ccoolness="0.8826688778457705" sigmaleader="0.0001" sigmagap="0.0001" sigmaerror="0.0001" jerkmax="3.4314116949842166" epsilonacc="0.11041799712330003" actionStepLength="0.0001" taccmax="0.9946126737216975" Mflatness="1.823237769834872" Mbegin="1.182173935065297" />
  <vType id="follower12" carFollowModel="EIDM" minGap="4.492428282738707" accel="1.6677876376947451" decel="1.6236511222700785" emergencyDecel="15" startupDelay="1.6680304799357262" tau="0.8981117659869271" delta="3.9203673828896632" stepping="0.25" tpreview="2.9796094935136814" tPersDrive="1.9435092873220325" tPersEstimate="6.383522847035971" treaction="1.148185018395769" ccoolness="0.2797361904088323" sigmaleader="0.0001" sigmagap="0.0001" sigmaerror="0.0001" jerkmax="1.9437328067469337" epsilonacc="2.2169550375093388" actionStepLength="0.0001" taccmax="1.5105661529455339" Mflatness="4.3905497638740805" Mbegin="1.1015889546514168" />
  <vType id="follower13" carFollowModel="EIDM" minGap="2.5893093335240023" accel="0.5212856887456059" decel="2.4314387330396343" emergencyDecel="15" startupDelay="0.9475458245569854" tau="1.6870473622432423" delta="5.262086673202264" stepping="0.25" tpreview="5.741338257860331" tPersDrive="2.28423549551846" tPersEstimate="10.95679093406968" treaction="0.8594148725957602" ccoolness="0.8227282141766757" sigmaleader="0.0001" sigmagap="0.0001" sigmaerror="0.0001" jerkmax="1.2139038021147037" epsilonacc="0.40007480103523263" actionStepLength="0.0001" taccmax="2.2134040040840985" Mflatness="1.9505882240481256" Mbegin="0.3066580322643452" />
  <vType id="follower14" carFollowModel="EIDM" minGap="2.3566119039635423" accel="1.7666457580048807" decel="2.755036339237985" emergencyDecel="15" startupDelay="1.5572894682672362" tau="0.5866851930648146" delta="4.98949692248226" stepping="0.25" tpreview="7.456830392500009" tPersDrive="1.6619477731414782" tPersEstimate="8.779774022020545" treaction="0.2020717044496351" ccoolness="0.07772491970171672" sigmaleader="0.0001" sigmagap="0.0001" sigmaerror="0.0001" jerkmax="4.894589346366244" epsilonacc="1.186553907267995" actionStepLength="0.0001" taccmax="1.3660883450306875" Mflatness="1.7008889227631419" Mbegin="0.6195638524934738" />
  <vType id="follower15" carFollowModel="EIDM" minGap="4.079987491610707" accel="3.9277511258367257" decel="1.5166143006196504" emergencyDecel="15" startupDelay="1.7870182893480524" tau="1.9442308829524548" delta="2.6455952377904097" stepping="0.25" tpreview="9.18765422197992" tPersDrive="4.354744775075414" tPersEstimate="9.630039775062599" treaction="0.582276185118584" ccoolness="0.043000325809745416" sigmaleader="0.0001" sigmagap="0.0001" sigmaerror="0.0001" jerkmax="2.804541579254299" epsilonacc="0.9416065698815809" actionStepLength="0.0001" taccmax="1.4851836919927375" Mflatness="1.1981134606339774" Mbegin="0.12906230392174398" />
  <vType id="follower16" carFollowModel="EIDM" minGap="3.1883197642751604" accel="2.9422726171369975" decel="0.85677675377425" emergencyDecel="15" startupDelay="1.7532754949143021" tau="1.0497285062404167" delta="5.6127629836108515" stepping="0.25" tpreview="2.4727106688985656" tPersDrive="3.4578085658074906" tPersEstimate="16.82186920920313" treaction="1.1305164345218657" ccoolness="0.21407751862257482" sigmaleader="0.0001" sigmagap="0.0001" sigmaerror="0.0001" jerkmax="1.537110006078167" epsilonacc="0.8479604943880488" actionStepLength="0.0001" taccmax="2.5714427635262544" Mflatness="4.75984322035862" Mbegin="1.34332363276614" />
  <vType id="follower17" carFollowModel="EIDM" minGap="4.0381515821846525" accel="3.0720166503309336" decel="0.5798332410831035" emergencyDecel="15" startupDelay="0.8270257338678484" tau="2.32593972649014" delta="2.5480507771704533" stepping="0.25" tpreview="7.112066668331172" tPersDrive="5.344324108213439" tPersEstimate="6.303624886392263" treaction="0.850769592325624" ccoolness="0.9855119573564707" sigmaleader="0.0001" sigmagap="0.0001" sigmaerror="0.0001" jerkmax="1.0807073766002788" epsilonacc="1.6612744713777463" actionStepLength="0.0001" taccmax="2.7624659551957893" Mflatness="4.055568279123245" Mbegin="0.7978983161731584" />
  <vType id="follower18" carFollowModel="EIDM" minGap="4.124099773593668" accel="3.87500478576427" decel="3.5235923253811836" emergencyDecel="15" startupDelay="1.525827651217057" tau="1.6526852879153524" delta="2.2304182745708596" stepping="0.25" tpreview="3.4666944748561774" tPersDrive="5.171910226616769" tPersEstimate="10.198013986851914" treaction="1.1020733062003065" ccoolness="0.5953426698351725" sigmaleader="0.0001" sigmagap="0.0001" sigmaerror="0.0001" jerkmax="2.7332064628426553" epsilonacc="2.095615040031021" actionStepLength="0.0001" taccmax="2.3286149235548415" Mflatness="2.1785455455416844" Mbegin="0.8532308490930144" />
  <vType id="follower19" carFollowModel="EIDM" minGap="2.302845074020729" accel="3.758838845658083" decel="3.0557337702578566" emergencyDecel="15" startupDelay="0.5700420019474908" tau="0.5014829284512442" delta="5.132981663818103" stepping="0.25" tpreview="4.742030081742821" tPersDrive="2.8690592606184255" tPersEstimate="14.905027531333994" treaction="0.6183813547890543" ccoolness="0.3933337719462305" sigmaleader="0.0001" sigmagap="0.0001" sigmaerror="0.0001" jerkmax="3.2259402418863172" epsilonacc="0.7129969838658758" actionStepLength="0.0001" taccmax="1.8640126188660493" Mflatness="1.797529765057615" Mbegin="0.18765515159240326" />
  <vType id="follower20" carFollowModel="EIDM" minGap="2.2106652763155648" accel="3.116637949552077" decel="4.853428187944086" emergencyDecel="15" startupDelay="1.119830989990104" tau="0.8842377485774949" delta="5.305814243976778" stepping="0.25" tpreview="6.564471065857435" tPersDrive="4.246522552675352" tPersEstimate="7.100698096763548" treaction="0.5183232736402414" ccoolness="0.9603580571434196" sigmaleader="0.0001" sigmagap="0.0001" sigmaerror="0.0001" jerkmax="3.6309022083750864" epsilonacc="0.5753397693222624" actionStepLength="0.0001" taccmax="2.5982704804950183" Mflatness="1.4428411975191315" Mbegin="0.8256673882187106" />
  <vType id="follower21" carFollowModel="EIDM" minGap="1.552606184583715" accel="1.8265751546960325" decel="3.4327887680566693" emergencyDecel="15" startupDelay="1.8194465566908744" tau="1.8615774165890329" delta="1.2070979922684182" stepping="0.25" tpreview="7.820972084930309" tPersDrive="3.8943745796191633" tPersEstimate="15.536803350728855" treaction="0.8169293354554983" ccoolness="0.2060176363922145" sigmaleader="0.0001" sigmagap="0.0001" sigmaerror="0.0001" jerkmax="3.6422555713752542" epsilonacc="1.2112002794945225" actionStepLength="0.0001" taccmax="2.528619567854539" Mflatness="3.993673468582785" Mbegin="1.0487080976688608" />
  <vType id="follower22" carFollowModel="EIDM" minGap="0.5182605380905072" accel="4.643112563048505" decel="2.8683145052586596" emergencyDecel="15" startupDelay="0.04435510259739974" tau="1.0189145912404427" delta="4.580405537673821" stepping="0.25" tpreview="5.990376639016186" tPersDrive="1.743555847057205" tPersEstimate="17.28071654335482" treaction="1.0739781360896854" ccoolness="0.8969985359716134" sigmaleader="0.0001" sigmagap="0.0001" sigmaerror="0.0001" jerkmax="3.777135039753856" epsilonacc="2.9730571099153495" actionStepLength="0.0001" taccmax="2.877261494038505" Mflatness="2.850147278290906" Mbegin="1.36620911429559" />
  <vType id="follower23" carFollowModel="EIDM" minGap="1.4071680233941" accel="3.8093334042228078" decel="1.0826803404120322" emergencyDecel="15" startupDelay="0.7127349987035901" tau="2.48758084685341" delta="4.049680419132782" stepping="0.25" tpreview="7.269851780883956" tPersDrive="4.6281661846159885" tPersEstimate="6.456280727200041" treaction="0.7593804074266386" ccoolness="0.7433624793623046" sigmaleader="0.0001" sigmagap="0.0001" sigmaerror="0.0001" jerkmax="3.539345308362864" epsilonacc="0.3694110886674895" actionStepLength="0.0001" taccmax="0.6522489022398708" Mflatness="2.2433705678958664" Mbegin="0.23888192127381355" />
  <vType id="follower24" carFollowModel="EIDM" minGap="2.075222248060011" accel="4.690184341505481" decel="2.9693457923304702" emergencyDecel="15" startupDelay="1.3415041504859904" tau="1.599788176745255" delta="1.9501454863087182" stepping="0.25" tpreview="9.99589071509788" tPersDrive="3.5454361722145826" tPersEstimate="12.60490382455167" treaction="0.8278369601499169" ccoolness="0.7753044416321175" sigmaleader="0.0001" sigmagap="0.0001" sigmaerror="0.0001" jerkmax="2.4355807351212393" epsilonacc="0.2300516176337437" actionStepLength="0.0001" taccmax="1.4055550867855036" Mflatness="4.060977875615702" Mbegin="0.7637919795141199" />
  <vType id="follower25" carFollowModel="EIDM" minGap="2.0165830540337897" accel="1.2050141054984338" decel="3.7670299700001806" emergencyDecel="15" startupDelay="0.20693080298861388" tau="0.5128135530701687" delta="3.5578056858280487" stepping="0.25" tpreview="6.909020801637554" tPersDrive="4.2713453159065065" tPersEstimate="13.099333712634856" treaction="0.34439220304989954" ccoolness="0.9294891983713737" sigmaleader="0.0001" sigmagap="0.0001" sigmaerror="0.0001" jerkmax="3.585878273606728" epsilonacc="1.645991073689703" actionStepLength="0.0001" taccmax="1.4218212231167748" Mflatness="4.452492867122814" Mbegin="0.12356379783019134" />
  <vType id="follower26" carFollowModel="EIDM" minGap="3.6340927756069" accel="1.4390162973725715" decel="2.3350007490006774" emergencyDecel="15" startupDelay="0.5114846477913179" tau="1.8194653306894242" delta="4.43667741307389" stepping="0.25" tpreview="2.906650455517671" tPersDrive="1.2874554824595008" tPersEstimate="7.751990255261116" treaction="0.3890204912180646" ccoolness="0.6286605110392268" sigmaleader="0.0001" sigmagap="0.0001" sigmaerror="0.0001" jerkmax="1.90076157551959" epsilonacc="2.6161775420728595" actionStepLength="0.0001" taccmax="1.6410578016311366" Mflatness="1.9973672272166607" Mbegin="1.445618620622935" />
  <vType id="follower27" carFollowModel="EIDM" minGap="2.823029132771545" accel="1.3510138773243487" decel="4.930983373926079" emergencyDecel="15" startupDelay="0.03995806830982225" tau="2.395896587452909" delta="2.044244562421339" stepping="0.25" tpreview="5.830519737095247" tPersDrive="1.3914206771753244" tPersEstimate="3.5926721008702347" treaction="1.027225097754862" ccoolness="0.271702036342614" sigmaleader="0.0001" sigmagap="0.0001" sigmaerror="0.0001" jerkmax="3.8998087873435763" epsilonacc="1.5500726418582171" actionStepLength="0.0001" taccmax="2.7038119311026936" Mflatness="1.859538297913908" Mbegin="0.2910177014979886" />
  <vType id="follower28" carFollowModel="EIDM" minGap="2.34262588151502" accel="2.7765155876684227" decel="4.471767429670118" emergencyDecel="15" startupDelay="1.9487992191903063" tau="2.2293293134834156" delta="4.208441767002334" stepping="0.25" tpreview="2.5433924069742675" tPersDrive="5.8240449139618775" tPersEstimate="17.472754476230026" treaction="0.9952470329143162" ccoolness="0.6956583928734935" sigmaleader="0.0001" sigmagap="0.0001" sigmaerror="0.0001" jerkmax="3.461456616122882" epsilonacc="0.24294060725341815" actionStepLength="0.0001" taccmax="2.727892222451663" Mflatness="4.362015011293977" Mbegin="0.46643366914126716" />
  <vType id="follower29" carFollowModel="EIDM" minGap="1.9977044619978677" accel="4.935844158755931" decel="4.571680540944382" emergencyDecel="15" startupDelay="1.1250688207745185" tau="1.034994758354368" delta="4.54496423584585" stepping="0.25" tpreview="3.6689366645883674" tPersDrive="1.5181850413037128" tPersEstimate="19.15936122954368" treaction="0.6945261574800229" ccoolness="0.9216472439357443" sigmaleader="0.0001" sigmagap="0.0001" sigmaerror="0.0001" jerkmax="3.8580579591410196" epsilonacc="2.4234780956920585" actionStepLength="0.0001" taccmax="1.666506163536141" Mflatness="1.1458978774006694" Mbegin="0.13839876463069556" />
  <vType id="follower30" carFollowModel="EIDM" minGap="0.5352260017127339" accel="1.0406859719481039" decel="4.250082053605091" emergencyDecel="15" startupDelay="1.8313733109500834" tau="1.9849854740178674" delta="2.9970902035172156" stepping="0.25" tpreview="2.74519327523687" tPersDrive="2.9187295465054723" tPersEstimate="17.843665411383284" treaction="0.29150126053251785" ccoolness="0.18558090964527896" sigmaleader="0.0001" sigmagap="0.0001" sigmaerror="0.0001" jerkmax="3.6852999850290216" epsilonacc="0.8197725186401362" actionStepLength="0.0001" taccmax="1.8768939149090509" Mflatness="2.154880123527162" Mbegin="0.36321366524891874" />
  <vType id="follower31" carFollowModel="EIDM" minGap="1.046337969178082" accel="2.878437763496445" decel="3.3112997459716276" emergencyDecel="15" startupDelay="1.1421738802215033" tau="2.3839813643797028" delta="5.021471748327929" stepping="0.25" tpreview="9.285882116453424" tPersDrive="3.6460842855012108" tPersEstimate="5.5968928470320956" treaction="0.3024841092506513" ccoolness="0.45240704560156486" sigmaleader="0.0001" sigmagap="0.0001" sigmaerror="0.0001" jerkmax="3.8325307004056164" epsilonacc="1.9593209317950422" actionStepLength="0.0001" taccmax="0.7061936294961746" Mflatness="4.414941147924226" Mbegin="1.4519646861056452" />
  <vType id="follower32" carFollowModel="EIDM" minGap="1.3370703046856076" accel="4.5240030156722755" decel="1.7840038292606193" emergencyDecel="15" startupDelay="0.29660617012101015" tau="2.096367778538271" delta="4.683264221348659" stepping="0.25" tpreview="1.9843831664139386" tPersDrive="2.435890057737664" tPersEstimate="2.980103348651149" treaction="0.9403326926477655" ccoolness="0.5423161369303959" sigmaleader="0.0001" sigmagap="0.0001" sigmaerror="0.0001" jerkmax="4.224758251863776" epsilonacc="1.8606075772082566" actionStepLength="0.0001" taccmax="2.663819946593409" Mflatness="1.646391002403145" Mbegin="0.9449254910345549" />
  <vType id="follower33" carFollowModel="EIDM" minGap="4.11476273434396" accel="2.4231838897361055" decel="3.3888514205017333" emergencyDecel="15" startupDelay="1.29210665853133" tau="1.2933538711233692" delta="5.5381567105844445" stepping="0.25" tpreview="2.4991494092674698" tPersDrive="4.3776742477517985" tPersEstimate="8.262063783104896" treaction="0.6757091919314938" ccoolness="0.23198213736545115" sigmaleader="0.0001" sigmagap="0.0001" sigmaerror="0.0001" jerkmax="1.7386217870945009" epsilonacc="1.2533163317945482" actionStepLength="0.0001" taccmax="2.279869824712825" Mflatness="2.591139374670629" Mbegin="0.7307805493247265" />
  <vType id="follower34" carFollowModel="EIDM" minGap="2.9890897877702227" accel="1.092365998925239" decel="1.6358001490542196" emergencyDecel="15" startupDelay="1.9676210413490471" tau="1.1995199496760418" delta="5.874500506732064" stepping="0.25" tpreview="5.183854300081109" tPersDrive="2.4573748684423693" tPersEstimate="18.022742109403268" treaction="0.26745029109082147" ccoolness="0.06071428318990721" sigmaleader="0.0001" sigmagap="0.0001" sigmaerror="0.0001" jerkmax="1.3476255040809983" epsilonacc="1.9123571138789524" actionStepLength="0.0001" taccmax="0.7775113743763528" Mflatness="3.59926608004052" Mbegin="1.2782740004602309" />
  <vType id="follower35" carFollowModel="EIDM" minGap="2.200428178084592" accel="2.0441676065106527" decel="2.316335421138728" emergencyDecel="15" startupDelay="1.0721627677979215" tau="1.1665420484783506" delta="2.3257815226736227" stepping="0.25" tpreview="3.5856315430080055" tPersDrive="3.4867333989454354" tPersEstimate="13.788078882570913" treaction="1.1966438476724208" ccoolness="0.05379077281635575" sigmaleader="0.0001" sigmagap="0.0001" sigmaerror="0.0001" jerkmax="4.96206924666649" epsilonacc="2.1223322464719887" actionStepLength="0.0001" taccmax="1.7731591203081356" Mflatness="3.001013565679051" Mbegin="1.1693203883604157" />
  <vType id="follower36" carFollowModel="EIDM" minGap="2.173418578678612" accel="4.818535811180923" decel="4.270117814036636" emergencyDecel="15" startupDelay="1.5632230702701957" tau="1.5226622918931543" delta="3.5929313322979204" stepping="0.25" tpreview="7.939201177041176" tPersDrive="2.218228004714006" tPersEstimate="9.886725767494209" treaction="0.40171011157746994" ccoolness="0.316201654898284" sigmaleader="0.0001" sigmagap="0.0001" sigmaerror="0.0001" jerkmax="3.8789885052944317" epsilonacc="1.2925936523777477" actionStepLength="0.0001" taccmax="0.7650544829422782" Mflatness="4.925124143424927" Mbegin="0.16455329138949887" />
  <vType id="follower37" carFollowModel="EIDM" minGap="3.4702708788123444" accel="2.3356526712737242" decel="2.178075750704397" emergencyDecel="15" startupDelay="0.8795428000843024" tau="1.4162309676136462" delta="5.092352897481921" stepping="0.25" tpreview="4.266040415948851" tPersDrive="2.2316055592914923" tPersEstimate="11.407512134583412" treaction="0.3964473063465784" ccoolness="0.6218438769222098" sigmaleader="0.0001" sigmagap="0.0001" sigmaerror="0.0001" jerkmax="3.18036539747254" epsilonacc="2.5884515541120128" actionStepLength="0.0001" taccmax="1.3148132817265252" Mflatness="2.2230617671118544" Mbegin="0.9217305889683809" />
  <vType id="follower38" carFollowModel="EIDM" minGap="2.4674470452929333" accel="0.22396111844044922" decel="3.0194955402914507" emergencyDecel="15" startupDelay="0.6396215490269658" tau="1.1089108351878703" delta="5.6723490294176475" stepping="0.25" tpreview="9.744948525571292" tPersDrive="1.77556140608369" tPersEstimate="18.75208849296353" treaction="0.3937240736588572" ccoolness="0.5876502024539698" sigmaleader="0.0001" sigmagap="0.0001" sigmaerror="0.0001" jerkmax="2.845050633110898" epsilonacc="0.6005770925752683" actionStepLength="0.0001" taccmax="0.8165020067278532" Mflatness="3.7855920401906293" Mbegin="1.0146492055764298" />
  <vType id="follower39" carFollowModel="EIDM" minGap="3.8819270198839395" accel="1.0733737103951446" decel="1.3573322096265417" emergencyDecel="15" startupDelay="0.011722065191496447" tau="1.4771865598872052" delta="2.923225284204136" stepping="0.25" tpreview="1.467254085820231" tPersDrive="4.998916324720143" tPersEstimate="1.7859376706465293" treaction="0.5312019040100606" ccoolness="0.08173338863080819" sigmaleader="0.0001" sigmagap="0.0001" sigmaerror="0.0001" jerkmax="2.473696332431615" epsilonacc="1.1930811549766596" actionStepLength="0.0001" taccmax="1.1204172920599953" Mflatness="4.767390948686983" Mbegin="0.4896089612362913" />
  <vType id="follower40" carFollowModel="EIDM" minGap="2.60726650907103" accel="1.8917960831767637" decel="2.220608637974091" emergencyDecel="15" startupDelay="0.4940587932144654" tau="1.4999822418131241" delta="5.33105074276129" stepping="0.25" tpreview="8.292539783654512" tPersDrive="3.5534993353561686" tPersEstimate="19.033835556273935" treaction="0.5661829870847064" ccoolness="0.6172411320870967" sigmaleader="0.0001" sigmagap="0.0001" sigmaerror="0.0001" jerkmax="4.924848189693522" epsilonacc="0.35340694697778674" actionStepLength="0.0001" taccmax="1.528813275264044" Mflatness="2.3413488290882585" Mbegin="1.2164060953129676" />
  <vType id="follower41" carFollowModel="EIDM" minGap="2.555581658142604" accel="4.393166951707532" decel="3.7985481285408733" emergencyDecel="15" startupDelay="0.31110183363347166" tau="2.4108446176652265" delta="1.7432790063014032" stepping="0.25" tpreview="2.398455172538409" tPersDrive="3.062807264474402" tPersEstimate="8.444044490133262" treaction="0.9688785604696408" ccoolness="0.5087511463634562" sigmaleader="0.0001" sigmagap="0.0001" sigmaerror="0.0001" jerkmax="3.6681568806924782" epsilonacc="1.6066736818323841" actionStepLength="0.0001" taccmax="2.0086951858597275" Mflatness="3.224192888297295" Mbegin="0.5325405836976288" />
  <vType id="follower42" carFollowModel="EIDM" minGap="4.8607500187828165" accel="0.4847527435979169" decel="0.6639613552158717" emergencyDecel="15" startupDelay="0.812320878245603" tau="1.3629442527993119" delta="1.084106465128249" stepping="0.25" tpreview="9.941711111186839" tPersDrive="1.8171071414928979" tPersEstimate="18.15105788866383" treaction="0.5775323544811508" ccoolness="0.7903818001319125" sigmaleader="0.0001" sigmagap="0.0001" sigmaerror="0.0001" jerkmax="3.081014768732805" epsilonacc="1.6166629920810693" actionStepLength="0.0001" taccmax="2.6459668914625936" Mflatness="3.6008689096758877" Mbegin="0.8888799838020038" />
  <vType id="follower43" carFollowModel="EIDM" minGap="1.2319129935271735" accel="1.4215819042226467" decel="3.7169711673410006" emergencyDecel="15" startupDelay="0.12911191565224361" tau="1.3151063521653112" delta="1.7911647704851772" stepping="0.25" tpreview="8.835500838464998" tPersDrive="4.947472517260378" tPersEstimate="6.191910654450807" treaction="0.4119205832720444" ccoolness="0.919478034184095" sigmaleader="0.0001" sigmagap="0.0001" sigmaerror="0.0001" jerkmax="2.4005744255829784" epsilonacc="2.51297647275236" actionStepLength="0.0001" taccmax="2.921415605803009" Mflatness="4.172335856449221" Mbegin="1.3709094644676445" />
  <vType id="follower44" carFollowModel="EIDM" minGap="0.5796819056642504" accel="3.453959431523099" decel="4.668462885753392" emergencyDecel="15" startupDelay="0.7912857939221063" tau="1.3437182812769737" delta="1.3357239509133005" stepping="0.25" tpreview="3.343896349963011" tPersDrive="2.8962678017240266" tPersEstimate="16.930213746038426" treaction="0.3704911409228623" ccoolness="0.10242908774060563" sigmaleader="0.0001" sigmagap="0.0001" sigmaerror="0.0001" jerkmax="4.3492768189344675" epsilonacc="2.1657047998691774" actionStepLength="0.0001" taccmax="1.6089496507444772" Mflatness="1.6910391784795968" Mbegin="0.9359450109285831" />
  <vType id="follower45" carFollowModel="EIDM" minGap="4.0204243712475645" accel="2.690008896097122" decel="3.331344041450145" emergencyDecel="15" startupDelay="1.0951266316338224" tau="1.62716024897534" delta="2.397843263638675" stepping="0.25" tpreview="7.011037468811974" tPersDrive="3.4040640809697194" tPersEstimate="16.416492867143255" treaction="1.0558520848707733" ccoolness="0.9783729208635079" sigmaleader="0.0001" sigmagap="0.0001" sigmaerror="0.0001" jerkmax="4.252547793990761" epsilonacc="2.0028338677987176" actionStepLength="0.0001" taccmax="1.9434994905128953" Mflatness="4.842947173189646" Mbegin="1.3769200147036218" />