<routes xmlns:xsi="http://www.w3.org/2001/XMLSchema-instance" xsi:noNamespaceSchemaLocation="http://sumo.dlr.de/xsd/routes_file.xsd">
  <vType id="follower0" carFollowModel="EIDM" minGap="4.323654089843428" accel="4.262138219769625" decel="3.419691413216239" emergencyDecel="15" startupDelay="0.35147795631389744" tau="0.9480710843420845" delta="4.759045808393621" stepping="0.25" tpreview="8.054806465570502" tPersDrive="5.226400133615757" tPersEstimate="9.111398791135484" treaction="0.6546812393390794" ccoolness="0.7705555563042756" sigmaleader="0.0001" sigmagap="0.0001" sigmaerror="0.0001" jerkmax="1.7808075359972686" epsilonacc="0.7394516672988397" actionStepLength="0.0001" taccmax="2.0865568206784015" Mflatness="2.0009318752061325" Mbegin="0.49071120218435615" />
  <vType id="follower1" carFollowModel="EIDM" minGap="1.4277829940015345" accel="2.116614042101333" decel="3.089378813525873" emergencyDecel="15" startupDelay="1.0132507579678276" tau="0.6186480846328775" delta="3.6165423786967423" stepping="0.25" tpreview="9.088664619566693" tPersDrive="5.468593221068862" tPersEstimate="16.369419715213418" treaction="0.4375360402489923" ccoolness="0.5878373860191796" sigmaleader="0.0001" sigmagap="0.0001" sigmaerror="0.0001" jerkmax="3.0702633824833385" epsilonacc="1.6282283352159077" actionStepLength="0.0001" taccmax="2.478339315185514" Mflatness="2.1306630597742617" Mbegin="0.9931270150526281" />
  <vType id="follower2" carFollowModel="EIDM" minGap="4.685148859711815" accel="3.05853798792033" decel="2.797011396355924" emergencyDecel="15" startupDelay="1.9074431542929735" tau="1.4006261017642117" delta="1.5754407025593176" stepping="0.25" tpreview="8.312825717551279" tPersDrive="1.0740438863207533" tPersEstimate="12.630813468129825" treaction="0.6519488484354666" ccoolness="0.9050346567691785" sigmaleader="0.0001" sigmagap="0.0001" sigmaerror="0.0001" jerkmax="3.965081740002398" epsilonacc="2.8973472258753015" actionStepLength="0.0001" taccmax="2.3979635903166043" Mflatness="3.4904767025104797" Mbegin="1.040156018977502" />
  <vType id="follower3" carFollowModel="EIDM" minGap="2.776856737098431" accel="3.8383005251697018" decel="4.725122639631875" emergencyDecel="15" startupDelay="0.8888462595987277" tau="2.2467877334984596" delta="2.596890284417008" stepping="0.25" tpreview="8.586725085848862" tPersDrive="3.8000515959930317" tPersEstimate="7.275241088657307" treaction="0.45876293956788927" ccoolness="0.6104613229415684" sigmaleader="0.0001" sigmagap="0.0001" sigmaerror="0.0001" jerkmax="4.929988273230391" epsilonacc="2.491214890794949" actionStepLength="0.0001" taccmax="1.095542689688537" Mflatness="3.183936302665069" Mbegin="1.192010495448979" />
  <vType id="follower4" carFollowModel="EIDM" minGap="4.08406078394335" accel="2.850667750959084" decel="3.1007293318617015" emergencyDecel="15" startupDelay="0.6441319638277109" tau="2.088120246365518" delta="3.439059824045055" stepping="0.25" tpreview="4.287515875178498" tPersDrive="5.446659801851714" tPersEstimate="16.776618341535467" treaction="0.8156285261207005" ccoolness="0.5471316060947169" sigmaleader="0.0001" sigmagap="0.0001" sigmaerror="0.0001" jerkmax="2.8703871193278427" epsilonacc="0.5902100039716573" actionStepLength="0.0001" taccmax="1.9830648265136117" Mflatness="2.071082597919238" Mbegin="0.8341636767071374" />
  <vType id="follower5" carFollowModel="EIDM" minGap="3.3980577588327816" accel="1.12295065133599" decel="1.9831883686004441" emergencyDecel="15" startupDelay="0.03157519394751862" tau="1.5327830928671133" delta="3.5980456164684718" stepping="0.25" tpreview="2.893595592510593" tPersDrive="2.9287163762509483" tPersEstimate="10.480614464456671" treaction="0.8706661962466867" ccoolness="0.6956048982830892" sigmaleader="0.0001" sigmagap="0.0001" sigmaerror="0.0001" jerkmax="2.415602207086462" epsilonacc="2.7516290228613935" actionStepLength="0.0001" taccmax="2.3822198595437145" Mflatness="4.472940606524136" Mbegin="0.22433108933489676" />
  <vType id="follower6" carFollowModel="EIDM" minGap="2.6697274332675525" accel="1.4872780414774904" decel="1.5669755792774507" emergencyDecel="15" startupDelay="1.0679993578304725" tau="0.7003188785766539" delta="4.496172564476125" stepping="0.25" tpreview="1.0673992959815113" tPersDrive="2.076264356817877" tPersEstimate="17.840145729430425" treaction="0.3083214457473984" ccoolness="0.9855606808266248" sigmaleader="0.0001" sigmagap="0.0001" sigmaerror="0.0001" jerkmax="2.35243042144923" epsilonacc="1.302293147262931" actionStepLength="0.0001" taccmax="2.8451095152917922" Mflatness="3.3835100072878594" Mbegin="0.21307003442169736" />
  <vType id="follower7" carFollowModel="EIDM" minGap="1.3724669786441728" accel="4.903184636876645" decel="2.421689904258424" emergencyDecel="15" startupDelay="1.9260835225895478" tau="1.1799308712661567" delta="1.5572100826317807" stepping="0.25" tpreview="4.143363718479138" tPersDrive="4.074991632695162" tPersEstimate="8.698867521122223" treaction="0.3441550785648082" ccoolness="0.9202953042238461" sigmaleader="0.0001" sigmagap="0.0001" sigmaerror="0.0001" jerkmax="1.7440981676335194" epsilonacc="1.4964702639598133" actionStepLength="0.0001" taccmax="0.9523945101357971" Mflatness="4.36134981601546" Mbegin="1.190178995060439" />
  <vType id="follower8" carFollowModel="EIDM" minGap="4.864587868762417" accel="4.3664371206710895" decel="2.958582420651088" emergencyDecel="15" startupDelay="1.030586462310308" tau="0.6606586966245029" delta="4.005998957704258" stepping="0.25" tpreview="3.0416341644679314" tPersDrive="5.979821249960397" tPersEstimate="17.37099522589629" treaction="0.5729754943992927" ccoolness="0.5303824772375207" sigmaleader="0.0001" sigmagap="0.0001" sigmaerror="0.0001" jerkmax="2.899100007090006" epsilonacc="1.9323745693873873" actionStepLength="0.0001" taccmax="2.6688344360934932" Mflatness="1.891589971540296" Mbegin="0.37408812543286063" />
  <vType id="follower9" carFollowModel="EIDM" minGap="2.790138681072825" accel="1.6631310637657148" decel="3.470782395556892" emergencyDecel="15" startupDelay="0.40885249033290383" tau="1.0810901491750347" delta="2.5233422115684103" stepping="0.25" tpreview="2.1551484761075868" tPersDrive="3.5905916007144896" tPersEstimate="9.699127670681998" treaction="0.3665014883048717" ccoolness="0.17366497456518404" sigmaleader="0.0001" sigmagap="0.0001" sigmaerror="0.0001" jerkmax="4.9806550044870725" epsilonacc="0.8779219045026683" actionStepLength="0.0001" taccmax="1.6897096035708907" Mflatness="2.97156779945058" Mbegin="1.4155420784464128" />
  <vType id="follower10" carFollowModel="EIDM" minGap="2.165504317915903" accel="2.467685897904166" decel="4.536458008712858" emergencyDecel="15" startupDelay="0.7379565935726886" tau="1.1159420146978603" delta="5.12398150809037" stepping="0.25" tpreview="5.819051926543317" tPersDrive="2.04633459139464" tPersEstimate="16.36219215387684" treaction="0.23617642469364963" ccoolness="0.46983013515786654" sigmaleader="0.0001" sigmagap="0.0001" sigmaerror="0.0001" jerkmax="4.855426961378455" epsilonacc="2.7512849533279495" actionStepLength="0.0001" taccmax="1.009962010673868" Mflatness="3.551992434490332" Mbegin="1.3008099076102024" />
  <vType id="follower11" carFollowModel="EIDM" minGap="4.819431466791067" accel="1.890448468430831" decel="2.601305689679632" emergencyDecel="15" startupDelay="0.9876108177330589" tau="1.0395651698568855" delta="4.868103969578722" stepping="0.25" tpreview="9.079886862803654" tPersDrive="4.703302175016238" tPersEstimate="11.322452679585178" treaction="0.5121811668150885" ccoolness="0.36746662376361794" sigmaleader="0.0001" sigmagap="0.0001" sigmaerror="0.0001" jerkmax="3.005987498469046" epsilonacc="1.1395739379255274" actionStepLength="0.0001" taccmax="2.4509424967409554" Mflatness="2.681732432530133" Mbegin="0.5994179659218086" />
  <vType id="follower12" carFollowModel="EIDM" minGap="1.2421293550314287" accel="3.0544005871760893" decel="1.456494294662134" emergencyDecel="15" startupDelay="1.2956652021938773" tau="1.5317834221030937" delta="2.4309454232450625" stepping="0.25" tpreview="2.779857128903601" tPersDrive="4.836808685763293" tPersEstimate="12.385036526755957" treaction="0.7692343459417381" ccoolness="0.013717102374899537" sigmaleader="0.0001" sigmagap="0.0001" sigmaerror="0.0001" jerkmax="1.5044736762711126" epsilonacc="2.2033506373691303" actionStepLength="0.0001" taccmax="2.8467159419948365" Mflatness="3.5892705350466714" Mbegin="1.1947856716656504" />
  <vType id="follower13" carFollowModel="EIDM" minGap="4.719717713607866" accel="2.764882085375636" decel="4.641366009977455" emergencyDecel="15" startupDelay="1.3846552799598648" tau="2.142700716021626" delta="4.3675653063054725" stepping="0.25" tpreview="4.835046825823854" tPersDrive="5.262698684208192" tPersEstimate="17.277060282148863" treaction="0.4127471974170045" ccoolness="0.9229996686033396" sigmaleader="0.0001" sigmagap="0.0001" sigmaerror="0.0001" jerkmax="1.5704571080061365" epsilonacc="0.4885209259152392" actionStepLength="0.0001" taccmax="1.24399507684925" Mflatness="2.818224473074738" Mbegin="0.24343967125906885" />
  <vType id="follower14" carFollowModel="EIDM" minGap="1.7006369514003057" accel="0.3463131939371724" decel="2.627669500756779" emergencyDecel="15" startupDelay="1.8865428186700595" tau="2.475702265106182" delta="1.6955228214884368" stepping="0.25" tpreview="6.4705904956127425" tPersDrive="5.189569973521044" tPersEstimate="14.552637451269078" treaction="0.47618632333926425" ccoolness="0.5120058326888186" sigmaleader="0.0001" sigmagap="0.0001" sigmaerror="0.0001" jerkmax="2.454971051501044" epsilonacc="2.1226799729920542" actionStepLength="0.0001" taccmax="2.715092173152491" Mflatness="3.9083017807250973" Mbegin="0.14242039597913736" />
  <vType id="follower15" carFollowModel="EIDM" minGap="2.959413639252988" accel="4.041936646461207" decel="2.2713887297424256" emergencyDecel="15" startupDelay="0.44052226415715934" tau="1.1508311129689508" delta="2.242388832127291" stepping="0.25" tpreview="7.288045611332411" tPersDrive="1.7127830241515793" tPersEstimate="19.201413260089577" treaction="0.6621500402968323" ccoolness="0.798545943383644" sigmaleader="0.0001" sigmagap="0.0001" sigmaerror="0.0001" jerkmax="2.6040891792680645" epsilonacc="0.7743301767254575" actionStepLength="0.0001" taccmax="2.075201004200206" Mflatness="3.54158769214134" Mbegin="1.0084262881577037" />
  <vType id="follower16" carFollowModel="EIDM" minGap="3.19531054308335" accel="2.2012026347804254" decel="4.935893575321925" emergencyDecel="15" startupDelay="0.2169362123215186" tau="1.6997808815680453" delta="3.8786107821888187" stepping="0.25" tpreview="7.647548622980661" tPersDrive="5.082942799761032" tPersEstimate="3.8925454650756164" treaction="0.5597239631290978" ccoolness="0.8528629064779211" sigmaleader="0.0001" sigmagap="0.0001" sigmaerror="0.0001" jerkmax="3.911347442169377" epsilonacc="0.9922779635233944" actionStepLength="0.0001" taccmax="0.7039021451208507" Mflatness="1.437241789928758" Mbegin="0.42242878714485554" />
  <vType id="follower17" carFollowModel="EIDM" minGap="0.6298005182099642" accel="3.394852391168335" decel="2.9988752942304364" emergencyDecel="15" startupDelay="1.935629006811955" tau="2.184747973376778" delta="1.0227261343889524" stepping="0.25" tpreview="4.337600139136304" tPersDrive="4.4365621596298555" tPersEstimate="18.78851321270135" treaction="0.2294729048910521" ccoolness="0.8627343074004853" sigmaleader="0.0001" sigmagap="0.0001" sigmaerror="0.0001" jerkmax="4.151176133417388" epsilonacc="1.1735494393072303" actionStepLength="0.0001" taccmax="2.395367766813411" Mflatness="2.2837325094045458" Mbegin="0.46525103575129106" />
  <vType id="follower18" carFollowModel="EIDM" minGap="3.2172057254571174" accel="4.138633655765301" decel="2.1947072956234273" emergencyDecel="15" startupDelay="0.9766691140689998" tau="1.9928769779113504" delta="4.84049447705296" stepping="0.25" tpreview="5.523142118253676" tPersDrive="3.5475883636235013" tPersEstimate="14.425493491973526" treaction="0.5205686122801769" ccoolness="0.275861446376397" sigmaleader="0.0001" sigmagap="0.0001" sigmaerror="0.0001" jerkmax="3.68235352035224" epsilonacc="0.2641940367136848" actionStepLength="0.0001" taccmax="2.416009721164112" Mflatness="1.0550502038362262" Mbegin="0.8304183166944346" />
  <vType id="follower19" carFollowModel="EIDM" minGap="4.126689501410215" accel="3.5692648452048243" decel="4.596365956943479" emergencyDecel="15" startupDelay="0.5109220467771287" tau="0.8528284461009961" delta="5.151026573686126" stepping="0.25" tpreview="8.669091160911043" tPersDrive="2.3346975912098507" tPersEstimate="11.903952583024934" treaction="0.46776158446020455" ccoolness="0.20825029905405734" sigmaleader="0.0001" sigmagap="0.0001" sigmaerror="0.0001" jerkmax="1.8387230688332434" epsilonacc="0.37780871417200745" actionStepLength="0.0001" taccmax="2.3575045224168374" Mflatness="3.1548091643474776" Mbegin="1.4779141130703835" />
  <vType id="follower20" carFollowModel="EIDM" minGap="2.2608865177364494" accel="4.724439957524019" decel="3.843807538386229" emergencyDecel="15" startupDelay="1.7144905860063868" tau="2.096516378392644" delta="3.708405750738808" stepping="0.25" tpreview="5.796257683060742" tPersDrive="4.038917152206259" tPersEstimate="14.203616241607156" treaction="1.1040258211759613" ccoolness="0.9875179930832926" sigmaleader="0.0001" sigmagap="0.0001" sigmaerror="0.0001" jerkmax="3.5040813924665324" epsilonacc="1.0475726092099873" actionStepLength="0.0001" taccmax="1.2360548107425526" Mflatness="3.07814885167258" Mbegin="0.522408500187854" />
  <vType id="follower21" carFollowModel="EIDM" minGap="1.5944950000243234" accel="4.434049760829667" decel="2.635621159076692" emergencyDecel="15" startupDelay="0.18303853602449005" tau="1.9355243847523234" delta="2.2812774626776626" stepping="0.25" tpreview="7.164135831891155" tPersDrive="1.37860129542194" tPersEstimate="17.65494177481188" treaction="0.9261389419094578" ccoolness="0.188774155751108" sigmaleader="0.0001" sigmagap="0.0001" sigmaerror="0.0001" jerkmax="3.7351207693717874" epsilonacc="1.2428190582340866" actionStepLength="0.0001" taccmax="0.6739852698984776" Mflatness="2.976502517097341" Mbegin="0.7441192927888052" />
  <vType id="follower22" carFollowModel="EIDM" minGap="1.340451434774438" accel="3.038422377253682" decel="2.7183022746603624" emergencyDecel="15" startupDelay="0.06119017060196885" tau="1.2199416223864132" delta="4.600199687463906" stepping="0.25" tpreview="7.4787389401445274" tPersDrive="3.3790146542139947" tPersEstimate="3.441475641842052" treaction="0.9649494041453265" ccoolness="0.6953748103549159" sigmaleader="0.0001" sigmagap="0.0001" sigmaerror="0.0001" jerkmax="2.4886796596600833" epsilonacc="2.2421045481541366" actionStepLength="0.0001" taccmax="0.8553788256521622" Mflatness="2.3563819445988905" Mbegin="0.11694901828579041" />
  <vType id="follower23" carFollowModel="EIDM" minGap="4.819955478259412" accel="4.349566874472226" decel="0.8410812261141674" emergencyDecel="15" startupDelay="0.7271254875794995" tau="2.403681526578234" delta="4.323185863306908" stepping="0.25" tpreview="7.768846824568486" tPersDrive="4.292106788942933" tPersEstimate="1.6197951856075274" treaction="0.32924944503710296" ccoolness="0.054336812493780196" sigmaleader="0.0001" sigmagap="0.0001" sigmaerror="0.0001" jerkmax="1.865280770659909" epsilonacc="2.416070114920874" actionStepLength="0.0001" taccmax="2.0514032343159974" Mflatness="4.89421551199705" Mbegin="0.8865976948237068" />
  <vType id="follower24" carFollowModel="EIDM" minGap="2.502579888496284" accel="2.21666520106918" decel="1.7823472873165298" emergencyDecel="15" startupDelay="0.891769771400541" tau="1.4547873253571972" delta="3.0850199656358925" stepping="0.25" tpreview="2.7013412382906" tPersDrive="3.418596631129149" tPersEstimate="1.144166940872255" treaction="0.2751404091146619" ccoolness="0.7136048534890358" sigmaleader="0.0001" sigmagap="0.0001" sigmaerror="0.0001" jerkmax="1.9269318427541058" epsilonacc="0.987642698590525" actionStepLength="0.0001" taccmax="1.3918805902838278" Mflatness="3.1002716647788344" Mbegin="1.4628754707049463" />
  <vType id="follower25" carFollowModel="EIDM" minGap="4.417488388083805" accel="4.380004323445639" decel="2.275555019464465" emergencyDecel="15" startupDelay="0.992370901615196" tau="1.9025945343089963" delta="3.9912264507083455" stepping="0.25" tpreview="2.882278644617442" tPersDrive="2.172694824176244" tPersEstimate="14.877501897610975" treaction="0.531967887841029" ccoolness="0.5379910513398427" sigmaleader="0.0001" sigmagap="0.0001" sigmaerror="0.0001" jerkmax="2.227548517736136" epsilonacc="0.23911921913385936" actionStepLength="0.0001" taccmax="2.9831573236902686" Mflatness="4.624542843028744" Mbegin="0.838635521978518" />
  <vType id="follower26" carFollowModel="EIDM" minGap="0.8288897040291507" accel="3.2719831183729884" decel="2.2882325708548956" emergencyDecel="15" startupDelay="0.8112257746553819" tau="0.7820479522371513" delta="5.412820648932003" stepping="0.25" tpreview="3.0093419680643185" tPersDrive="1.8711686513987087" tPersEstimate="19.936215659464235" treaction="0.7446039997693439" ccoolness="0.32568196216820033" sigmaleader="0.0001" sigmagap="0.0001" sigmaerror="0.0001" jerkmax="1.0899182270146652" epsilonacc="0.9714679345004111" actionStepLength="0.0001" taccmax="1.1499700411945035" Mflatness="1.5298078441160121" Mbegin="1.2280951763464867" />
  <vType id="follower27" carFollowModel="EIDM" minGap="3.2873865672147073" accel="4.249315214030383" decel="2.731603915395583" emergencyDecel="15" startupDelay="0.2968877208044669" tau="1.818187780335337" delta="1.0127921979273031" stepping="0.25" tpreview="3.402265571661295" tPersDrive="2.9497934476892995" tPersEstimate="5.355512564052253" treaction="0.6237839478299908" ccoolness="0.27538357487972875" sigmaleader="0.0001" sigmagap="0.0001" sigmaerror="0.0001" jerkmax="1.0074094204460708" epsilonacc="1.8245945304561157" actionStepLength="0.0001" taccmax="2.564053306689841" Mflatness="4.086624767451687" Mbegin="0.7432973379696287" />
  <vType id="follower28" carFollowModel="EIDM" minGap="4.459917016055897" accel="1.9456144672005788" decel="3.657936191374287" emergencyDecel="15" startupDelay="1.7755768632067563" tau="2.2145239462995594" delta="3.125750707305832" stepping="0.25" tpreview="2.098741170448809" tPersDrive="4.008907840802461" tPersEstimate="8.459225408562332" treaction="0.7335891813194801" ccoolness="0.9541955329049499" sigmaleader="0.0001" sigmagap="0.0001" sigmaerror="0.0001" jerkmax="4.602068327101081" epsilonacc="1.1291325793486966" actionStepLength="0.0001" taccmax="2.144766236735649" Mflatness="3.2291430779212646" Mbegin="1.453800978340011" />
  <vType id="follower29" carFollowModel="EIDM" minGap="2.459524524454568" accel="0.8229285457683106" decel="2.4527439496874814" emergencyDecel="15" startupDelay="0.7847484301668395" tau="1.9439454959835674" delta="1.464813527929799" stepping="0.25" tpreview="8.291908957576334" tPersDrive="4.057539846046875" tPersEstimate="2.9483669573833753" treaction="1.1160003510624268" ccoolness="0.7225983185272038" sigmaleader="0.0001" sigmagap="0.0001" sigmaerror="0.0001" jerkmax="3.39037154862313" epsilonacc="0.7283125269611325" actionStepLength="0.0001" taccmax="1.8409382115244766" Mflatness="4.274778787650909" Mbegin="0.11666116484415867" />
  <vType id="follower30" carFollowModel="EIDM" minGap="1.9275867669449622" accel="1.3998051833752936" decel="0.673762917239741" emergencyDecel="15" startupDelay="1.6890620414785296" tau="1.8324320616779" delta="5.85398535090396" stepping="0.25" tpreview="7.826725396351581" tPersDrive="3.0201097593393507" tPersEstimate="6.197785270460939" treaction="0.9086022621291726" ccoolness="0.6078643672335882" sigmaleader="0.0001" sigmagap="0.0001" sigmaerror="0.0001" jerkmax="1.728869449943054" epsilonacc="0.18610453174051256" actionStepLength="0.0001" taccmax="2.615876376252711" Mflatness="4.876351208545746" Mbegin="0.545924767152435" />
  <vType id="follower31" carFollowModel="EIDM" minGap="3.90290309299389" accel="1.5141980989676613" decel="4.964394748607191" emergencyDecel="15" startupDelay="0.0373441100433094" tau="2.1304275723737165" delta="2.8710325639842424" stepping="0.25" tpreview="4.0683208940463045" tPersDrive="5.65518519510793" tPersEstimate="10.33027070908064" treaction="0.26081049437194487" ccoolness="0.7710349040916556" sigmaleader="0.0001" sigmagap="0.0001" sigmaerror="0.0001" jerkmax="4.579056909539737" epsilonacc="1.624041360715074" actionStepLength="0.0001" taccmax="2.016410216331732" Mflatness="2.9784543320588384" Mbegin="0.4459132138093601" />
  <vType id="follower32" carFollowModel="EIDM" minGap="3.5047127109050473" accel="1.7003566678741409" decel="1.9137100174646555" emergencyDecel="15" startupDelay="0.7353101561793922" tau="2.0432270403020567" delta="2.992337146139979" stepping="0.25" tpreview="9.524602837416051" tPersDrive="3.200957986674043" tPersEstimate="2.442437955174606" treaction="0.3650090843091227" ccoolness="0.7827031012107438" sigmaleader="0.0001" sigmagap="0.0001" sigmaerror="0.0001" jerkmax="3.882996633526192" epsilonacc="0.4441744312741047" actionStepLength="0.0001" taccmax="2.6568997488678305" Mflatness="1.1265616125414986" Mbegin="1.146616849914333" />
  <vType id="follower33" carFollowModel="EIDM" minGap="4.626281147899515" accel="0.5982929046838312" decel="4.518825399707266" emergencyDecel="15" startupDelay="0.03768317837762003" tau="1.5718952732228166" delta="2.1498206571580463" stepping="0.25" tpreview="7.702785478627446" tPersDrive="5.622266227892316" tPersEstimate="19.746686162814605" treaction="0.3333949796346548" ccoolness="0.8092279203559957" sigmaleader="0.0001" sigmagap="0.0001" sigmaerror="0.0001" jerkmax="4.665335845947176" epsilonacc="1.2755780653816167" actionStepLength="0.0001" taccmax="2.9517682561339393" Mflatness="2.2046621791933756" Mbegin="1.3282790137484102" />
  <vType id="follower34" carFollowModel="EIDM" minGap="4.26516044173142" accel="4.092843167866098" decel="3.4332567798565483" emergencyDecel="15" startupDelay="0.31108499298896275" tau="2.2113230593956485" delta="3.518106324930546" stepping="0.25" tpreview="5.943625326518411" tPersDrive="2.6546037381508842" tPersEstimate="12.218975408379226" treaction="0.7791144881531533" ccoolness="0.12930118855053419" sigmaleader="0.0001" sigmagap="0.0001" sigmaerror="0.0001" jerkmax="2.3428429606304086" epsilonacc="2.214815466295123" actionStepLength="0.0001" taccmax="2.3340583556463157" Mflatness="1.584517568391993" Mbegin="1.0768129511444289" />
  <vType id="follower35" carFollowModel="EIDM" minGap="0.5325536501177437" accel="2.7992465267306677" decel="3.0959225609735705" emergencyDecel="15" startupDelay="0.06831369409301002" tau="1.656506847339972" delta="3.9035364922894127" stepping="0.25" tpreview="5.019003138090721" tPersDrive="3.5265491080754083" tPersEstimate="7.20289973945031" treaction="0.3356396867860912" ccoolness="0.23098314540109088" sigmaleader="0.0001" sigmagap="0.0001" sigmaerror="0.0001" jerkmax="1.0659422298553767" epsilonacc="2.8678073099636903" actionStepLength="0.0001" taccmax="1.6344119253512184" Mflatness="2.3786530620012907" Mbegin="1.1005616998389014" />
  <vType id="follower36" carFollowModel="EIDM" minGap="3.8407424858984496" accel="4.698422468835666" decel="4.554964314846571" emergencyDecel="15" startupDelay="1.5313170325242547" tau="2.1109486525260293" delta="3.120123554921612" stepping="0.25" tpreview="2.8621272420813018" tPersDrive="5.928397852038373" tPersEstimate="10.165808437890623" treaction="0.48815253342939924" ccoolness="0.9223411524486909" sigmaleader="0.0001" sigmagap="0.0001" sigmaerror="0.0001" jerkmax="1.9424211719039253" epsilonacc="2.789783383689133" actionStepLength="0.0001" taccmax="2.3367279898948397" Mflatness="2.8551263065681654" Mbegin="0.31830383602174134" />
  <vType id="follower37" carFollowModel="EIDM" minGap="0.7624216708181915" accel="2.1738135537525416" decel="4.175297119548215" emergencyDecel="15" startupDelay="1.8249056558344978" tau="2.051468602937601" delta="4.170547720232888" stepping="0.25" tpreview="1.9268821969019134" tPersDrive="3.9629148347397227" tPersEstimate="15.528144007442336" treaction="0.5013296378360158" ccoolness="0.5711940537403195" sigmaleader="0.0001" sigmagap="0.0001" sigmaerror="0.0001" jerkmax="2.48911470541404" epsilonacc="0.8564362448586045" actionStepLength="0.0001" taccmax="0.5423813969243678" Mflatness="2.6330157355853476" Mbegin="1.333355572201973" />
  <vType id="follower38" carFollowModel="EIDM" minGap="1.3555299096210234" accel="1.9238745016123202" decel="0.7204793812511867" emergencyDecel="15" startupDelay="0.4771348509623693" tau="0.5412364387647522" delta="4.2594353553093915" stepping="0.25" tpreview="9.67420021197163" tPersDrive="2.593275856850749" tPersEstimate="13.258968276380195" treaction="1.029105673585743" ccoolness="0.2021751971635214" sigmaleader="0.0001" sigmagap="0.0001" sigmaerror="0.0001" jerkmax="2.3226736065030975" epsilonacc="0.26920721726909225" actionStepLength="0.0001" taccmax="2.6972045379096183" Mflatness="1.6743201500977578" Mbegin="1.3366466264312988" />
  <vType id="follower39" carFollowModel="EIDM" minGap="2.1861041894888107" accel="1.2046956570685696" decel="1.0646290945363044" emergencyDecel="15" startupDelay="1.5442282945672554" tau="1.0374767808261096" delta="5.677194668067607" stepping="0.25" tpreview="2.0108687942490655" tPersDrive="4.768493863134597" tPersEstimate="14.341381102808601" treaction="1.1526123215070396" ccoolness="0.6695312547669459" sigmaleader="0.0001" sigmagap="0.0001" sigmaerror="0.0001" jerkmax="1.5498630750511295" epsilonacc="0.8484029837794096" actionStepLength="0.0001" taccmax="0.6924195588751401" Mflatness="2.520704080861181" Mbegin="1.2452501767720543" />
  <vType id="follower40" carFollowModel="EIDM" minGap="4.585172238352718" accel="3.989495093338548" decel="3.1079250920582124" emergencyDecel="15" startupDelay="0.5340331733312017" tau="0.5732471821024423" delta="2.406990489011956" stepping="0.25" tpreview="6.343504223087383" tPersDrive="4.492322249973651" tPersEstimate="10.705384716776198" treaction="0.3051283363782986" ccoolness="0.14140960018077775" sigmaleader="0.0001" sigmagap="0.0001" sigmaerror="0.0001" jerkmax="4.476849263111965" epsilonacc="0.7318253738300499" actionStepLength="0.0001" taccmax="1.2479223216519415" Mflatness="2.8364160870387263" Mbegin="0.6185094991891334" />
  <vType id="follower41" carFollowModel="EIDM" minGap="2.7343723416230348" accel="4.282836183702821" decel="2.739622621136425" emergencyDecel="15" startupDelay="1.8006881768224863" tau="0.6494013758801518" delta="4.52799646817409" stepping="0.25" tpreview="4.908022942754998" tPersDrive="5.651860608272408" tPersEstimate="11.124076406577704" treaction="0.5233883567884811" ccoolness="0.7405786852432236" sigmaleader="0.0001" sigmagap="0.0001" sigmaerror="0.0001" jerkmax="2.0755381041728964" epsilonacc="2.6245302940985846" actionStepLength="0.0001" taccmax="1.6375657148594842" Mflatness="2.8309529175956683" Mbegin="0.7245791072263825" />
  <vType id="follower42" carFollowModel="EIDM" minGap="0.7302860600560264" accel="3.877587042069308" decel="4.759183240914554" emergencyDecel="15" startupDelay="0.7490672898351491" tau="0.5826309952557241" delta="5.732854965743131" stepping="0.25" tpreview="7.124016074656316" tPersDrive="5.765034670816375" tPersEstimate="9.211275233443022" treaction="0.8416845821823022" ccoolness="0.6005722778431437" sigmaleader="0.0001" sigmagap="0.0001" sigmaerror="0.0001" jerkmax="3.0217150197748293" epsilonacc="2.27255602524789" actionStepLength="0.0001" taccmax="2.4873032876066854" Mflatness="1.3789648836414272" Mbegin="1.0321040446353882" />
  <vType id="follower43" carFollowModel="EIDM" minGap="4.850700924626459" accel="2.22015989122639" decel="4.55384841257713" emergencyDecel="15" startupDelay="1.2735434981963258" tau="1.4538424692114627" delta="5.562039329759889" stepping="0.25" tpreview="4.202874074671792" tPersDrive="2.8877686357339387" tPersEstimate="10.02049449659658" treaction="0.8763963105173723" ccoolness="0.5046189474646442" sigmaleader="0.0001" sigmagap="0.0001" sigmaerror="0.0001" jerkmax="3.046449008429428" epsilonacc="2.341095049725045" actionStepLength="0.0001" taccmax="2.8343174487660328" Mflatness="1.9535774100166488" Mbegin="1.3781859209838054" />
  <vType id="follower44" carFollowModel="EIDM" minGap="3.993347350523236" accel="4.216472067588629" decel="1.406182649771462" emergencyDecel="15" startupDelay="0.7564115568523653" tau="0.8405507111988928" delta="3.485398308032027" stepping="0.25" tpreview="7.010346671358278" tPersDrive="5.594198127943451" tPersEstimate="9.139241001026274" treaction="0.34573229733411526" ccoolness="0.4096415530164807" sigmaleader="0.0001" sigmagap="0.0001" sigmaerror="0.0001" jerkmax="3.5718150189588544" epsilonacc="2.278033085396007" actionStepLength="0.0001" taccmax="2.919570180177958" Mflatness="4.577006389973062" Mbegin="0.5972454662443779" />
  <vType id="follower45" carFollowModel="EIDM" minGap="3.400617033654665" accel="0.9201245453203115" decel="3.0858311399218947" emergencyDecel="15" startupDelay="1.4605633804716205" tau="0.7534476724348536" delta="2.884896958789837" stepping="0.25" tpreview="5.193814212483254" tPersDrive="3.18670484237993" tPersEstimate="11.565693291325037" treaction="0.6988036612764602" ccoolness="0.5310831677281154" sigmaleader="0.0001" sigmagap="0.0001" sigmaerror="0.0001" jerkmax="3.065586168356032" epsilonacc="1.7445352993017094" actionStepLength="0.0001" taccmax="1.587067937199279" Mflatness="1.1750670530212273" Mbegin="0.6458701869143308" />