<?xml version="1.0" encoding="UTF-8"?>

<!-- generated on 2024-07-11 00:25:52 by Eclipse SUMO netgenerate Version 1.18.0
<configuration xmlns:xsi="http://www.w3.org/2001/XMLSchema-instance" xsi:noNamespaceSchemaLocation="http://sumo.dlr.de/xsd/netgenerateConfiguration.xsd">

    <grid_network>
        <grid value="true"/>
        <grid.x-number value="2"/>
        <grid.y-number value="204"/>
        <grid.x-length value="2000"/>
        <grid.y-length value="20"/>
    </grid_network>

    <output>
        <output-file value="/home/bookboi/Documents/cloud/1_Docs/8_Coding/studienarbeit_nacharbeit/pycalibration_tool/test_data/result/sumo_project_differential_evolution/calibration_network.xml"/>
    </output>

    <building_defaults>
        <default.speed value="13.8889"/>
    </building_defaults>

</configuration>
-->

<net version="1.16" junctionCornerDetail="5" limitTurnSpeed="5.50" xmlns:xsi="http://www.w3.org/2001/XMLSchema-instance" xsi:noNamespaceSchemaLocation="http://sumo.dlr.de/xsd/net_file.xsd">

    <location netOffset="0.00,0.00" convBoundary="0.00,0.00,2000.00,4060.00" origBoundary="0.00,0.00,2000.00,4060.00" projParameter="!"/>

    <edge id=":A0_0" function="internal">
        <lane id=":A0_0_0" index="0" speed="6.08" length="7.74" shape="-1.60,3.20 -1.30,1.10 -0.40,-0.40 1.10,-1.30 3.20,-1.60"/>
    </edge>
    <edge id=":A0_1" function="internal">
        <lane id=":A0_1_0" index="0" speed="3.90" length="2.58" shape="3.20,1.60 2.50,1.70 2.00,2.00 1.70,2.50 1.60,3.20"/>
    </edge>
    <edge id=":A1_0" function="internal">
        <lane id=":A1_0_0" index="0" speed="13.89" length="14.40" shape="-1.60,27.20 -1.60,12.80"/>
    </edge>
    <edge id=":A1_1" function="internal">
        <lane id=":A1_1_0" index="0" speed="8.00" length="4.07" shape="-1.60,27.20 -1.05,23.35 -0.96,23.20"/>
    </edge>
    <edge id=":A1_2" function="internal">
        <lane id=":A1_2_0" index="0" speed="3.65" length="1.44" shape="-1.60,27.20 -0.80,26.00"/>
    </edge>
    <edge id=":A1_9" function="internal">
        <lane id=":A1_9_0" index="0" speed="8.00" length="10.13" shape="-0.96,23.20 0.60,20.60 3.35,18.95 7.20,18.40"/>
    </edge>
    <edge id=":A1_10" function="internal">
        <lane id=":A1_10_0" index="0" speed="3.65" length="3.23" shape="-0.80,26.00 0.00,25.60 0.80,26.00 1.60,27.20"/>
    </edge>
    <edge id=":A1_3" function="internal">
        <lane id=":A1_3_0" index="0" speed="6.51" length="9.03" shape="7.20,21.60 4.75,21.95 3.00,23.00 1.95,24.75 1.60,27.20"/>
    </edge>
    <edge id=":A1_4" function="internal">
        <lane id=":A1_4_0" index="0" speed="8.00" length="14.19" shape="7.20,21.60 3.35,21.05 0.60,19.40 -1.05,16.65 -1.60,12.80"/>
    </edge>
    <edge id=":A1_5" function="internal">
        <lane id=":A1_5_0" index="0" speed="3.65" length="4.67" shape="7.20,21.60 6.00,20.80 5.60,20.00 6.00,19.20 7.20,18.40"/>
    </edge>
    <edge id=":A1_6" function="internal">
        <lane id=":A1_6_0" index="0" speed="6.51" length="9.03" shape="1.60,12.80 1.95,15.25 3.00,17.00 4.75,18.05 7.20,18.40"/>
    </edge>
    <edge id=":A1_7" function="internal">
        <lane id=":A1_7_0" index="0" speed="13.89" length="14.40" shape="1.60,12.80 1.60,27.20"/>
    </edge>
    <edge id=":A1_8" function="internal">
        <lane id=":A1_8_0" index="0" speed="3.65" length="1.44" shape="1.60,12.80 0.80,14.00"/>
    </edge>
    <edge id=":A1_11" function="internal">
        <lane id=":A1_11_0" index="0" speed="3.65" length="3.23" shape="0.80,14.00 0.00,14.40 -0.80,14.00 -1.60,12.80"/>
    </edge>
    <edge id=":A10_0" function="internal">
        <lane id=":A10_0_0" index="0" speed="13.89" length="14.40" shape="-1.60,207.20 -1.60,192.80"/>
    </edge>
    <edge id=":A10_1" function="internal">
        <lane id=":A10_1_0" index="0" speed="8.00" length="4.07" shape="-1.60,207.20 -1.05,203.35 -0.96,203.20"/>
    </edge>
    <edge id=":A10_2" function="internal">
        <lane id=":A10_2_0" index="0" speed="3.65" length="1.44" shape="-1.60,207.20 -0.80,206.00"/>
    </edge>
    <edge id=":A10_9" function="internal">
        <lane id=":A10_9_0" index="0" speed="8.00" length="10.13" shape="-0.96,203.20 0.60,200.60 3.35,198.95 7.20,198.40"/>
    </edge>
    <edge id=":A10_10" function="internal">
        <lane id=":A10_10_0" index="0" speed="3.65" length="3.23" shape="-0.80,206.00 0.00,205.60 0.80,206.00 1.60,207.20"/>
    </edge>
    <edge id=":A10_3" function="internal">
        <lane id=":A10_3_0" index="0" speed="6.51" length="9.03" shape="7.20,201.60 4.75,201.95 3.00,203.00 1.95,204.75 1.60,207.20"/>
    </edge>
    <edge id=":A10_4" function="internal">
        <lane id=":A10_4_0" index="0" speed="8.00" length="14.19" shape="7.20,201.60 3.35,201.05 0.60,199.40 -1.05,196.65 -1.60,192.80"/>
    </edge>
    <edge id=":A10_5" function="internal">
        <lane id=":A10_5_0" index="0" speed="3.65" length="4.67" shape="7.20,201.60 6.00,200.80 5.60,200.00 6.00,199.20 7.20,198.40"/>
    </edge>
    <edge id=":A10_6" function="internal">
        <lane id=":A10_6_0" index="0" speed="6.51" length="9.03" shape="1.60,192.80 1.95,195.25 3.00,197.00 4.75,198.05 7.20,198.40"/>
    </edge>
    <edge id=":A10_7" function="internal">
        <lane id=":A10_7_0" index="0" speed="13.89" length="14.40" shape="1.60,192.80 1.60,207.20"/>
    </edge>
    <edge id=":A10_8" function="internal">
        <lane id=":A10_8_0" index="0" speed="3.65" length="1.44" shape="1.60,192.80 0.80,194.00"/>
    </edge>
    <edge id=":A10_11" function="internal">
        <lane id=":A10_11_0" index="0" speed="3.65" length="3.23" shape="0.80,194.00 0.00,194.40 -0.80,194.00 -1.60,192.80"/>
    </edge>
    <edge id=":A100_0" function="internal">
        <lane id=":A100_0_0" index="0" speed="13.89" length="14.40" shape="-1.60,2007.20 -1.60,1992.80"/>
    </edge>
    <edge id=":A100_1" function="internal">
        <lane id=":A100_1_0" index="0" speed="8.00" length="4.07" shape="-1.60,2007.20 -1.05,2003.35 -0.96,2003.20"/>
    </edge>
    <edge id=":A100_2" function="internal">
        <lane id=":A100_2_0" index="0" speed="3.65" length="1.44" shape="-1.60,2007.20 -0.80,2006.00"/>
    </edge>
    <edge id=":A100_9" function="internal">
        <lane id=":A100_9_0" index="0" speed="8.00" length="10.13" shape="-0.96,2003.20 0.60,2000.60 3.35,1998.95 7.20,1998.40"/>
    </edge>
    <edge id=":A100_10" function="internal">
        <lane id=":A100_10_0" index="0" speed="3.65" length="3.23" shape="-0.80,2006.00 0.00,2005.60 0.80,2006.00 1.60,2007.20"/>
    </edge>
    <edge id=":A100_3" function="internal">
        <lane id=":A100_3_0" index="0" speed="6.51" length="9.03" shape="7.20,2001.60 4.75,2001.95 3.00,2003.00 1.95,2004.75 1.60,2007.20"/>
    </edge>
    <edge id=":A100_4" function="internal">
        <lane id=":A100_4_0" index="0" speed="8.00" length="14.19" shape="7.20,2001.60 3.35,2001.05 0.60,1999.40 -1.05,1996.65 -1.60,1992.80"/>
    </edge>
    <edge id=":A100_5" function="internal">
        <lane id=":A100_5_0" index="0" speed="3.65" length="4.67" shape="7.20,2001.60 6.00,2000.80 5.60,2000.00 6.00,1999.20 7.20,1998.40"/>
    </edge>
    <edge id=":A100_6" function="internal">
        <lane id=":A100_6_0" index="0" speed="6.51" length="9.03" shape="1.60,1992.80 1.95,1995.25 3.00,1997.00 4.75,1998.05 7.20,1998.40"/>
    </edge>
    <edge id=":A100_7" function="internal">
        <lane id=":A100_7_0" index="0" speed="13.89" length="14.40" shape="1.60,1992.80 1.60,2007.20"/>
    </edge>
    <edge id=":A100_8" function="internal">
        <lane id=":A100_8_0" index="0" speed="3.65" length="1.44" shape="1.60,1992.80 0.80,1994.00"/>
    </edge>
    <edge id=":A100_11" function="internal">
        <lane id=":A100_11_0" index="0" speed="3.65" length="3.23" shape="0.80,1994.00 0.00,1994.40 -0.80,1994.00 -1.60,1992.80"/>
    </edge>
    <edge id=":A101_0" function="internal">
        <lane id=":A101_0_0" index="0" speed="13.89" length="14.40" shape="-1.60,2027.20 -1.60,2012.80"/>
    </edge>
    <edge id=":A101_1" function="internal">
        <lane id=":A101_1_0" index="0" speed="8.00" length="4.07" shape="-1.60,2027.20 -1.05,2023.35 -0.96,2023.20"/>
    </edge>
    <edge id=":A101_2" function="internal">
        <lane id=":A101_2_0" index="0" speed="3.65" length="1.44" shape="-1.60,2027.20 -0.80,2026.00"/>
    </edge>
    <edge id=":A101_9" function="internal">
        <lane id=":A101_9_0" index="0" speed="8.00" length="10.13" shape="-0.96,2023.20 0.60,2020.60 3.35,2018.95 7.20,2018.40"/>
    </edge>
    <edge id=":A101_10" function="internal">
        <lane id=":A101_10_0" index="0" speed="3.65" length="3.23" shape="-0.80,2026.00 0.00,2025.60 0.80,2026.00 1.60,2027.20"/>
    </edge>
    <edge id=":A101_3" function="internal">
        <lane id=":A101_3_0" index="0" speed="6.51" length="9.03" shape="7.20,2021.60 4.75,2021.95 3.00,2023.00 1.95,2024.75 1.60,2027.20"/>
    </edge>
    <edge id=":A101_4" function="internal">
        <lane id=":A101_4_0" index="0" speed="8.00" length="14.19" shape="7.20,2021.60 3.35,2021.05 0.60,2019.40 -1.05,2016.65 -1.60,2012.80"/>
    </edge>
    <edge id=":A101_5" function="internal">
        <lane id=":A101_5_0" index="0" speed="3.65" length="4.67" shape="7.20,2021.60 6.00,2020.80 5.60,2020.00 6.00,2019.20 7.20,2018.40"/>
    </edge>
    <edge id=":A101_6" function="internal">
        <lane id=":A101_6_0" index="0" speed="6.51" length="9.03" shape="1.60,2012.80 1.95,2015.25 3.00,2017.00 4.75,2018.05 7.20,2018.40"/>
    </edge>
    <edge id=":A101_7" function="internal">
        <lane id=":A101_7_0" index="0" speed="13.89" length="14.40" shape="1.60,2012.80 1.60,2027.20"/>
    </edge>
    <edge id=":A101_8" function="internal">
        <lane id=":A101_8_0" index="0" speed="3.65" length="1.44" shape="1.60,2012.80 0.80,2014.00"/>
    </edge>
    <edge id=":A101_11" function="internal">
        <lane id=":A101_11_0" index="0" speed="3.65" length="3.23" shape="0.80,2014.00 0.00,2014.40 -0.80,2014.00 -1.60,2012.80"/>
    </edge>
    <edge id=":A102_0" function="internal">
        <lane id=":A102_0_0" index="0" speed="13.89" length="14.40" shape="-1.60,2047.20 -1.60,2032.80"/>
    </edge>
    <edge id=":A102_1" function="internal">
        <lane id=":A102_1_0" index="0" speed="8.00" length="4.07" shape="-1.60,2047.20 -1.05,2043.35 -0.96,2043.20"/>
    </edge>
    <edge id=":A102_2" function="internal">
        <lane id=":A102_2_0" index="0" speed="3.65" length="1.44" shape="-1.60,2047.20 -0.80,2046.00"/>
    </edge>
    <edge id=":A102_9" function="internal">
        <lane id=":A102_9_0" index="0" speed="8.00" length="10.13" shape="-0.96,2043.20 0.60,2040.60 3.35,2038.95 7.20,2038.40"/>
    </edge>
    <edge id=":A102_10" function="internal">
        <lane id=":A102_10_0" index="0" speed="3.65" length="3.23" shape="-0.80,2046.00 0.00,2045.60 0.80,2046.00 1.60,2047.20"/>
    </edge>
    <edge id=":A102_3" function="internal">
        <lane id=":A102_3_0" index="0" speed="6.51" length="9.03" shape="7.20,2041.60 4.75,2041.95 3.00,2043.00 1.95,2044.75 1.60,2047.20"/>
    </edge>
    <edge id=":A102_4" function="internal">
        <lane id=":A102_4_0" index="0" speed="8.00" length="14.19" shape="7.20,2041.60 3.35,2041.05 0.60,2039.40 -1.05,2036.65 -1.60,2032.80"/>
    </edge>
    <edge id=":A102_5" function="internal">
        <lane id=":A102_5_0" index="0" speed="3.65" length="4.67" shape="7.20,2041.60 6.00,2040.80 5.60,2040.00 6.00,2039.20 7.20,2038.40"/>
    </edge>
    <edge id=":A102_6" function="internal">
        <lane id=":A102_6_0" index="0" speed="6.51" length="9.03" shape="1.60,2032.80 1.95,2035.25 3.00,2037.00 4.75,2038.05 7.20,2038.40"/>
    </edge>
    <edge id=":A102_7" function="internal">
        <lane id=":A102_7_0" index="0" speed="13.89" length="14.40" shape="1.60,2032.80 1.60,2047.20"/>
    </edge>
    <edge id=":A102_8" function="internal">
        <lane id=":A102_8_0" index="0" speed="3.65" length="1.44" shape="1.60,2032.80 0.80,2034.00"/>
    </edge>
    <edge id=":A102_11" function="internal">
        <lane id=":A102_11_0" index="0" speed="3.65" length="3.23" shape="0.80,2034.00 0.00,2034.40 -0.80,2034.00 -1.60,2032.80"/>
    </edge>
    <edge id=":A103_0" function="internal">
        <lane id=":A103_0_0" index="0" speed="13.89" length="14.40" shape="-1.60,2067.20 -1.60,2052.80"/>
    </edge>
    <edge id=":A103_1" function="internal">
        <lane id=":A103_1_0" index="0" speed="8.00" length="4.07" shape="-1.60,2067.20 -1.05,2063.35 -0.96,2063.20"/>
    </edge>
    <edge id=":A103_2" function="internal">
        <lane id=":A103_2_0" index="0" speed="3.65" length="1.44" shape="-1.60,2067.20 -0.80,2066.00"/>
    </edge>
    <edge id=":A103_9" function="internal">
        <lane id=":A103_9_0" index="0" speed="8.00" length="10.13" shape="-0.96,2063.20 0.60,2060.60 3.35,2058.95 7.20,2058.40"/>
    </edge>
    <edge id=":A103_10" function="internal">
        <lane id=":A103_10_0" index="0" speed="3.65" length="3.23" shape="-0.80,2066.00 0.00,2065.60 0.80,2066.00 1.60,2067.20"/>
    </edge>
    <edge id=":A103_3" function="internal">
        <lane id=":A103_3_0" index="0" speed="6.51" length="9.03" shape="7.20,2061.60 4.75,2061.95 3.00,2063.00 1.95,2064.75 1.60,2067.20"/>
    </edge>
    <edge id=":A103_4" function="internal">
        <lane id=":A103_4_0" index="0" speed="8.00" length="14.19" shape="7.20,2061.60 3.35,2061.05 0.60,2059.40 -1.05,2056.65 -1.60,2052.80"/>
    </edge>
    <edge id=":A103_5" function="internal">
        <lane id=":A103_5_0" index="0" speed="3.65" length="4.67" shape="7.20,2061.60 6.00,2060.80 5.60,2060.00 6.00,2059.20 7.20,2058.40"/>
    </edge>
    <edge id=":A103_6" function="internal">
        <lane id=":A103_6_0" index="0" speed="6.51" length="9.03" shape="1.60,2052.80 1.95,2055.25 3.00,2057.00 4.75,2058.05 7.20,2058.40"/>
    </edge>
    <edge id=":A103_7" function="internal">
        <lane id=":A103_7_0" index="0" speed="13.89" length="14.40" shape="1.60,2052.80 1.60,2067.20"/>
    </edge>
    <edge id=":A103_8" function="internal">
        <lane id=":A103_8_0" index="0" speed="3.65" length="1.44" shape="1.60,2052.80 0.80,2054.00"/>
    </edge>
    <edge id=":A103_11" function="internal">
        <lane id=":A103_11_0" index="0" speed="3.65" length="3.23" shape="0.80,2054.00 0.00,2054.40 -0.80,2054.00 -1.60,2052.80"/>
    </edge>
    <edge id=":A104_0" function="internal">
        <lane id=":A104_0_0" index="0" speed="13.89" length="14.40" shape="-1.60,2087.20 -1.60,2072.80"/>
    </edge>
    <edge id=":A104_1" function="internal">
        <lane id=":A104_1_0" index="0" speed="8.00" length="4.07" shape="-1.60,2087.20 -1.05,2083.35 -0.96,2083.20"/>
    </edge>
    <edge id=":A104_2" function="internal">
        <lane id=":A104_2_0" index="0" speed="3.65" length="1.44" shape="-1.60,2087.20 -0.80,2086.00"/>
    </edge>
    <edge id=":A104_9" function="internal">
        <lane id=":A104_9_0" index="0" speed="8.00" length="10.13" shape="-0.96,2083.20 0.60,2080.60 3.35,2078.95 7.20,2078.40"/>
    </edge>
    <edge id=":A104_10" function="internal">
        <lane id=":A104_10_0" index="0" speed="3.65" length="3.23" shape="-0.80,2086.00 0.00,2085.60 0.80,2086.00 1.60,2087.20"/>
    </edge>
    <edge id=":A104_3" function="internal">
        <lane id=":A104_3_0" index="0" speed="6.51" length="9.03" shape="7.20,2081.60 4.75,2081.95 3.00,2083.00 1.95,2084.75 1.60,2087.20"/>
    </edge>
    <edge id=":A104_4" function="internal">
        <lane id=":A104_4_0" index="0" speed="8.00" length="14.19" shape="7.20,2081.60 3.35,2081.05 0.60,2079.40 -1.05,2076.65 -1.60,2072.80"/>
    </edge>
    <edge id=":A104_5" function="internal">
        <lane id=":A104_5_0" index="0" speed="3.65" length="4.67" shape="7.20,2081.60 6.00,2080.80 5.60,2080.00 6.00,2079.20 7.20,2078.40"/>
    </edge>
    <edge id=":A104_6" function="internal">
        <lane id=":A104_6_0" index="0" speed="6.51" length="9.03" shape="1.60,2072.80 1.95,2075.25 3.00,2077.00 4.75,2078.05 7.20,2078.40"/>
    </edge>
    <edge id=":A104_7" function="internal">
        <lane id=":A104_7_0" index="0" speed="13.89" length="14.40" shape="1.60,2072.80 1.60,2087.20"/>
    </edge>
    <edge id=":A104_8" function="internal">
        <lane id=":A104_8_0" index="0" speed="3.65" length="1.44" shape="1.60,2072.80 0.80,2074.00"/>
    </edge>
    <edge id=":A104_11" function="internal">
        <lane id=":A104_11_0" index="0" speed="3.65" length="3.23" shape="0.80,2074.00 0.00,2074.40 -0.80,2074.00 -1.60,2072.80"/>
    </edge>
    <edge id=":A105_0" function="internal">
        <lane id=":A105_0_0" index="0" speed="13.89" length="14.40" shape="-1.60,2107.20 -1.60,2092.80"/>
    </edge>
    <edge id=":A105_1" function="internal">
        <lane id=":A105_1_0" index="0" speed="8.00" length="4.07" shape="-1.60,2107.20 -1.05,2103.35 -0.96,2103.20"/>
    </edge>
    <edge id=":A105_2" function="internal">
        <lane id=":A105_2_0" index="0" speed="3.65" length="1.44" shape="-1.60,2107.20 -0.80,2106.00"/>
    </edge>
    <edge id=":A105_9" function="internal">
        <lane id=":A105_9_0" index="0" speed="8.00" length="10.13" shape="-0.96,2103.20 0.60,2100.60 3.35,2098.95 7.20,2098.40"/>
    </edge>
    <edge id=":A105_10" function="internal">
        <lane id=":A105_10_0" index="0" speed="3.65" length="3.23" shape="-0.80,2106.00 0.00,2105.60 0.80,2106.00 1.60,2107.20"/>
    </edge>
    <edge id=":A105_3" function="internal">
        <lane id=":A105_3_0" index="0" speed="6.51" length="9.03" shape="7.20,2101.60 4.75,2101.95 3.00,2103.00 1.95,2104.75 1.60,2107.20"/>
    </edge>
    <edge id=":A105_4" function="internal">
        <lane id=":A105_4_0" index="0" speed="8.00" length="14.19" shape="7.20,2101.60 3.35,2101.05 0.60,2099.40 -1.05,2096.65 -1.60,2092.80"/>
    </edge>
    <edge id=":A105_5" function="internal">
        <lane id=":A105_5_0" index="0" speed="3.65" length="4.67" shape="7.20,2101.60 6.00,2100.80 5.60,2100.00 6.00,2099.20 7.20,2098.40"/>
    </edge>
    <edge id=":A105_6" function="internal">
        <lane id=":A105_6_0" index="0" speed="6.51" length="9.03" shape="1.60,2092.80 1.95,2095.25 3.00,2097.00 4.75,2098.05 7.20,2098.40"/>
    </edge>
    <edge id=":A105_7" function="internal">
        <lane id=":A105_7_0" index="0" speed="13.89" length="14.40" shape="1.60,2092.80 1.60,2107.20"/>
    </edge>
    <edge id=":A105_8" function="internal">
        <lane id=":A105_8_0" index="0" speed="3.65" length="1.44" shape="1.60,2092.80 0.80,2094.00"/>
    </edge>
    <edge id=":A105_11" function="internal">
        <lane id=":A105_11_0" index="0" speed="3.65" length="3.23" shape="0.80,2094.00 0.00,2094.40 -0.80,2094.00 -1.60,2092.80"/>
    </edge>
    <edge id=":A106_0" function="internal">
        <lane id=":A106_0_0" index="0" speed="13.89" length="14.40" shape="-1.60,2127.20 -1.60,2112.80"/>
    </edge>
    <edge id=":A106_1" function="internal">
        <lane id=":A106_1_0" index="0" speed="8.00" length="4.07" shape="-1.60,2127.20 -1.05,2123.35 -0.96,2123.20"/>
    </edge>
    <edge id=":A106_2" function="internal">
        <lane id=":A106_2_0" index="0" speed="3.65" length="1.44" shape="-1.60,2127.20 -0.80,2126.00"/>
    </edge>
    <edge id=":A106_9" function="internal">
        <lane id=":A106_9_0" index="0" speed="8.00" length="10.13" shape="-0.96,2123.20 0.60,2120.60 3.35,2118.95 7.20,2118.40"/>
    </edge>
    <edge id=":A106_10" function="internal">
        <lane id=":A106_10_0" index="0" speed="3.65" length="3.23" shape="-0.80,2126.00 0.00,2125.60 0.80,2126.00 1.60,2127.20"/>
    </edge>
    <edge id=":A106_3" function="internal">
        <lane id=":A106_3_0" index="0" speed="6.51" length="9.03" shape="7.20,2121.60 4.75,2121.95 3.00,2123.00 1.95,2124.75 1.60,2127.20"/>
    </edge>
    <edge id=":A106_4" function="internal">
        <lane id=":A106_4_0" index="0" speed="8.00" length="14.19" shape="7.20,2121.60 3.35,2121.05 0.60,2119.40 -1.05,2116.65 -1.60,2112.80"/>
    </edge>
    <edge id=":A106_5" function="internal">
        <lane id=":A106_5_0" index="0" speed="3.65" length="4.67" shape="7.20,2121.60 6.00,2120.80 5.60,2120.00 6.00,2119.20 7.20,2118.40"/>
    </edge>
    <edge id=":A106_6" function="internal">
        <lane id=":A106_6_0" index="0" speed="6.51" length="9.03" shape="1.60,2112.80 1.95,2115.25 3.00,2117.00 4.75,2118.05 7.20,2118.40"/>
    </edge>
    <edge id=":A106_7" function="internal">
        <lane id=":A106_7_0" index="0" speed="13.89" length="14.40" shape="1.60,2112.80 1.60,2127.20"/>
    </edge>
    <edge id=":A106_8" function="internal">
        <lane id=":A106_8_0" index="0" speed="3.65" length="1.44" shape="1.60,2112.80 0.80,2114.00"/>
    </edge>
    <edge id=":A106_11" function="internal">
        <lane id=":A106_11_0" index="0" speed="3.65" length="3.23" shape="0.80,2114.00 0.00,2114.40 -0.80,2114.00 -1.60,2112.80"/>
    </edge>
    <edge id=":A107_0" function="internal">
        <lane id=":A107_0_0" index="0" speed="13.89" length="14.40" shape="-1.60,2147.20 -1.60,2132.80"/>
    </edge>
    <edge id=":A107_1" function="internal">
        <lane id=":A107_1_0" index="0" speed="8.00" length="4.07" shape="-1.60,2147.20 -1.05,2143.35 -0.96,2143.20"/>
    </edge>
    <edge id=":A107_2" function="internal">
        <lane id=":A107_2_0" index="0" speed="3.65" length="1.44" shape="-1.60,2147.20 -0.80,2146.00"/>
    </edge>
    <edge id=":A107_9" function="internal">
        <lane id=":A107_9_0" index="0" speed="8.00" length="10.13" shape="-0.96,2143.20 0.60,2140.60 3.35,2138.95 7.20,2138.40"/>
    </edge>
    <edge id=":A107_10" function="internal">
        <lane id=":A107_10_0" index="0" speed="3.65" length="3.23" shape="-0.80,2146.00 0.00,2145.60 0.80,2146.00 1.60,2147.20"/>
    </edge>
    <edge id=":A107_3" function="internal">
        <lane id=":A107_3_0" index="0" speed="6.51" length="9.03" shape="7.20,2141.60 4.75,2141.95 3.00,2143.00 1.95,2144.75 1.60,2147.20"/>
    </edge>
    <edge id=":A107_4" function="internal">
        <lane id=":A107_4_0" index="0" speed="8.00" length="14.19" shape="7.20,2141.60 3.35,2141.05 0.60,2139.40 -1.05,2136.65 -1.60,2132.80"/>
    </edge>
    <edge id=":A107_5" function="internal">
        <lane id=":A107_5_0" index="0" speed="3.65" length="4.67" shape="7.20,2141.60 6.00,2140.80 5.60,2140.00 6.00,2139.20 7.20,2138.40"/>
    </edge>
    <edge id=":A107_6" function="internal">
        <lane id=":A107_6_0" index="0" speed="6.51" length="9.03" shape="1.60,2132.80 1.95,2135.25 3.00,2137.00 4.75,2138.05 7.20,2138.40"/>
    </edge>
    <edge id=":A107_7" function="internal">
        <lane id=":A107_7_0" index="0" speed="13.89" length="14.40" shape="1.60,2132.80 1.60,2147.20"/>
    </edge>
    <edge id=":A107_8" function="internal">
        <lane id=":A107_8_0" index="0" speed="3.65" length="1.44" shape="1.60,2132.80 0.80,2134.00"/>
    </edge>
    <edge id=":A107_11" function="internal">
        <lane id=":A107_11_0" index="0" speed="3.65" length="3.23" shape="0.80,2134.00 0.00,2134.40 -0.80,2134.00 -1.60,2132.80"/>
    </edge>
    <edge id=":A108_0" function="internal">
        <lane id=":A108_0_0" index="0" speed="13.89" length="14.40" shape="-1.60,2167.20 -1.60,2152.80"/>
    </edge>
    <edge id=":A108_1" function="internal">
        <lane id=":A108_1_0" index="0" speed="8.00" length="4.07" shape="-1.60,2167.20 -1.05,2163.35 -0.96,2163.20"/>
    </edge>
    <edge id=":A108_2" function="internal">
        <lane id=":A108_2_0" index="0" speed="3.65" length="1.44" shape="-1.60,2167.20 -0.80,2166.00"/>
    </edge>
    <edge id=":A108_9" function="internal">
        <lane id=":A108_9_0" index="0" speed="8.00" length="10.13" shape="-0.96,2163.20 0.60,2160.60 3.35,2158.95 7.20,2158.40"/>
    </edge>
    <edge id=":A108_10" function="internal">
        <lane id=":A108_10_0" index="0" speed="3.65" length="3.23" shape="-0.80,2166.00 0.00,2165.60 0.80,2166.00 1.60,2167.20"/>
    </edge>
    <edge id=":A108_3" function="internal">
        <lane id=":A108_3_0" index="0" speed="6.51" length="9.03" shape="7.20,2161.60 4.75,2161.95 3.00,2163.00 1.95,2164.75 1.60,2167.20"/>
    </edge>
    <edge id=":A108_4" function="internal">
        <lane id=":A108_4_0" index="0" speed="8.00" length="14.19" shape="7.20,2161.60 3.35,2161.05 0.60,2159.40 -1.05,2156.65 -1.60,2152.80"/>
    </edge>
    <edge id=":A108_5" function="internal">
        <lane id=":A108_5_0" index="0" speed="3.65" length="4.67" shape="7.20,2161.60 6.00,2160.80 5.60,2160.00 6.00,2159.20 7.20,2158.40"/>
    </edge>
    <edge id=":A108_6" function="internal">
        <lane id=":A108_6_0" index="0" speed="6.51" length="9.03" shape="1.60,2152.80 1.95,2155.25 3.00,2157.00 4.75,2158.05 7.20,2158.40"/>
    </edge>
    <edge id=":A108_7" function="internal">
        <lane id=":A108_7_0" index="0" speed="13.89" length="14.40" shape="1.60,2152.80 1.60,2167.20"/>
    </edge>
    <edge id=":A108_8" function="internal">
        <lane id=":A108_8_0" index="0" speed="3.65" length="1.44" shape="1.60,2152.80 0.80,2154.00"/>
    </edge>
    <edge id=":A108_11" function="internal">
        <lane id=":A108_11_0" index="0" speed="3.65" length="3.23" shape="0.80,2154.00 0.00,2154.40 -0.80,2154.00 -1.60,2152.80"/>
    </edge>
    <edge id=":A109_0" function="internal">
        <lane id=":A109_0_0" index="0" speed="13.89" length="14.40" shape="-1.60,2187.20 -1.60,2172.80"/>
    </edge>
    <edge id=":A109_1" function="internal">
        <lane id=":A109_1_0" index="0" speed="8.00" length="4.07" shape="-1.60,2187.20 -1.05,2183.35 -0.96,2183.20"/>
    </edge>
    <edge id=":A109_2" function="internal">
        <lane id=":A109_2_0" index="0" speed="3.65" length="1.44" shape="-1.60,2187.20 -0.80,2186.00"/>
    </edge>
    <edge id=":A109_9" function="internal">
        <lane id=":A109_9_0" index="0" speed="8.00" length="10.13" shape="-0.96,2183.20 0.60,2180.60 3.35,2178.95 7.20,2178.40"/>
    </edge>
    <edge id=":A109_10" function="internal">
        <lane id=":A109_10_0" index="0" speed="3.65" length="3.23" shape="-0.80,2186.00 0.00,2185.60 0.80,2186.00 1.60,2187.20"/>
    </edge>
    <edge id=":A109_3" function="internal">
        <lane id=":A109_3_0" index="0" speed="6.51" length="9.03" shape="7.20,2181.60 4.75,2181.95 3.00,2183.00 1.95,2184.75 1.60,2187.20"/>
    </edge>
    <edge id=":A109_4" function="internal">
        <lane id=":A109_4_0" index="0" speed="8.00" length="14.19" shape="7.20,2181.60 3.35,2181.05 0.60,2179.40 -1.05,2176.65 -1.60,2172.80"/>
    </edge>
    <edge id=":A109_5" function="internal">
        <lane id=":A109_5_0" index="0" speed="3.65" length="4.67" shape="7.20,2181.60 6.00,2180.80 5.60,2180.00 6.00,2179.20 7.20,2178.40"/>
    </edge>
    <edge id=":A109_6" function="internal">
        <lane id=":A109_6_0" index="0" speed="6.51" length="9.03" shape="1.60,2172.80 1.95,2175.25 3.00,2177.00 4.75,2178.05 7.20,2178.40"/>
    </edge>
    <edge id=":A109_7" function="internal">
        <lane id=":A109_7_0" index="0" speed="13.89" length="14.40" shape="1.60,2172.80 1.60,2187.20"/>
    </edge>
    <edge id=":A109_8" function="internal">
        <lane id=":A109_8_0" index="0" speed="3.65" length="1.44" shape="1.60,2172.80 0.80,2174.00"/>
    </edge>
    <edge id=":A109_11" function="internal">
        <lane id=":A109_11_0" index="0" speed="3.65" length="3.23" shape="0.80,2174.00 0.00,2174.40 -0.80,2174.00 -1.60,2172.80"/>
    </edge>
    <edge id=":A11_0" function="internal">
        <lane id=":A11_0_0" index="0" speed="13.89" length="14.40" shape="-1.60,227.20 -1.60,212.80"/>
    </edge>
    <edge id=":A11_1" function="internal">
        <lane id=":A11_1_0" index="0" speed="8.00" length="4.07" shape="-1.60,227.20 -1.05,223.35 -0.96,223.20"/>
    </edge>
    <edge id=":A11_2" function="internal">
        <lane id=":A11_2_0" index="0" speed="3.65" length="1.44" shape="-1.60,227.20 -0.80,226.00"/>
    </edge>
    <edge id=":A11_9" function="internal">
        <lane id=":A11_9_0" index="0" speed="8.00" length="10.13" shape="-0.96,223.20 0.60,220.60 3.35,218.95 7.20,218.40"/>
    </edge>
    <edge id=":A11_10" function="internal">
        <lane id=":A11_10_0" index="0" speed="3.65" length="3.23" shape="-0.80,226.00 0.00,225.60 0.80,226.00 1.60,227.20"/>
    </edge>
    <edge id=":A11_3" function="internal">
        <lane id=":A11_3_0" index="0" speed="6.51" length="9.03" shape="7.20,221.60 4.75,221.95 3.00,223.00 1.95,224.75 1.60,227.20"/>
    </edge>
    <edge id=":A11_4" function="internal">
        <lane id=":A11_4_0" index="0" speed="8.00" length="14.19" shape="7.20,221.60 3.35,221.05 0.60,219.40 -1.05,216.65 -1.60,212.80"/>
    </edge>
    <edge id=":A11_5" function="internal">
        <lane id=":A11_5_0" index="0" speed="3.65" length="4.67" shape="7.20,221.60 6.00,220.80 5.60,220.00 6.00,219.20 7.20,218.40"/>
    </edge>
    <edge id=":A11_6" function="internal">
        <lane id=":A11_6_0" index="0" speed="6.51" length="9.03" shape="1.60,212.80 1.95,215.25 3.00,217.00 4.75,218.05 7.20,218.40"/>
    </edge>
    <edge id=":A11_7" function="internal">
        <lane id=":A11_7_0" index="0" speed="13.89" length="14.40" shape="1.60,212.80 1.60,227.20"/>
    </edge>
    <edge id=":A11_8" function="internal">
        <lane id=":A11_8_0" index="0" speed="3.65" length="1.44" shape="1.60,212.80 0.80,214.00"/>
    </edge>
    <edge id=":A11_11" function="internal">
        <lane id=":A11_11_0" index="0" speed="3.65" length="3.23" shape="0.80,214.00 0.00,214.40 -0.80,214.00 -1.60,212.80"/>
    </edge>
    <edge id=":A110_0" function="internal">
        <lane id=":A110_0_0" index="0" speed="13.89" length="14.40" shape="-1.60,2207.20 -1.60,2192.80"/>
    </edge>
    <edge id=":A110_1" function="internal">
        <lane id=":A110_1_0" index="0" speed="8.00" length="4.07" shape="-1.60,2207.20 -1.05,2203.35 -0.96,2203.20"/>
    </edge>
    <edge id=":A110_2" function="internal">
        <lane id=":A110_2_0" index="0" speed="3.65" length="1.44" shape="-1.60,2207.20 -0.80,2206.00"/>
    </edge>
    <edge id=":A110_9" function="internal">